# generated using pymatgen
data_Cr4Te14Pt3
_symmetry_space_group_name_H-M   'P 1'
_cell_length_a   6.94814000
_cell_length_b   6.94813935
_cell_length_c   30.00000000
_cell_angle_alpha   90.00000000
_cell_angle_beta   90.00000000
_cell_angle_gamma   59.99999691
_symmetry_Int_Tables_number   1
_chemical_formula_structural   Cr4Te14Pt3
_chemical_formula_sum   'Cr4 Te14 Pt3'
_cell_volume   1254.26398911
_cell_formula_units_Z   1
loop_
 _symmetry_equiv_pos_site_id
 _symmetry_equiv_pos_as_xyz
  1  'x, y, z'
loop_
 _atom_site_type_symbol
 _atom_site_label
 _atom_site_symmetry_multiplicity
 _atom_site_fract_x
 _atom_site_fract_y
 _atom_site_fract_z
 _atom_site_occupancy
  Cr  Cr0  1  0.99965695  0.49803424  0.38475051  1
  Cr  Cr1  1  0.49803424  0.50230881  0.38475051  1
  Cr  Cr2  1  0.50230881  0.99965695  0.38475051  1
  Cr  Cr3  1  0.00000000  0.00000000  0.38472388  1
  Te  Te4  1  0.16257360  0.66630571  0.44227003  1
  Te  Te5  1  0.17112169  0.16257360  0.44227003  1
  Te  Te6  1  0.66666700  0.66666700  0.32697996  1
  Te  Te7  1  0.66653708  0.16804826  0.32697294  1
  Te  Te8  1  0.16541566  0.66653708  0.32697294  1
  Te  Te9  1  0.16804826  0.16541566  0.32697294  1
  Te  Te10  1  0.66666700  0.66666700  0.44289793  1
  Te  Te11  1  0.00467172  0.66727409  0.65108319  1
  Te  Te12  1  0.66727409  0.32805419  0.65108319  1
  Te  Te13  1  0.32805419  0.00467172  0.65108319  1
  Te  Te14  1  0.66587682  0.99384159  0.55843040  1
  Te  Te15  1  0.34028159  0.66587682  0.55843040  1
  Te  Te16  1  0.99384159  0.34028159  0.55843040  1
  Te  Te17  1  0.66630571  0.17112169  0.44227003  1
  Pt  Pt18  1  0.66666700  0.66666700  0.60643244  1
  Pt  Pt19  1  0.33333300  0.33333300  0.60376918  1
  Pt  Pt20  1  0.00000000  0.00000000  0.60334641  1
