# generated using pymatgen
data_HfPtO4
_symmetry_space_group_name_H-M   'P 1'
_cell_length_a   3.19695814
_cell_length_b   3.19695800
_cell_length_c   30.00000000
_cell_angle_alpha   90.00000000
_cell_angle_beta   90.00000000
_cell_angle_gamma   60.00000141
_symmetry_Int_Tables_number   1
_chemical_formula_structural   HfPtO4
_chemical_formula_sum   'Hf1 Pt1 O4'
_cell_volume   265.53744527
_cell_formula_units_Z   1
loop_
 _symmetry_equiv_pos_site_id
 _symmetry_equiv_pos_as_xyz
  1  'x, y, z'
loop_
 _atom_site_type_symbol
 _atom_site_label
 _atom_site_symmetry_multiplicity
 _atom_site_fract_x
 _atom_site_fract_y
 _atom_site_fract_z
 _atom_site_occupancy
  Hf  Hf0  1  0.00000000  0.00000000  0.57179273  1
  Pt  Pt1  1  0.00000000  0.00000000  0.42897421  1
  O  O2  1  0.33333300  0.33333300  0.53910425  1
  O  O3  1  0.66666700  0.66666700  0.60472033  1
  O  O4  1  0.33333300  0.33333300  0.39841456  1
  O  O5  1  0.66666700  0.66666700  0.45921492  1
