# generated using pymatgen
data_HfZrS4
_symmetry_space_group_name_H-M   'P 1'
_cell_length_a   3.55723399
_cell_length_b   3.55723400
_cell_length_c   30.00000000
_cell_angle_alpha   90.00000000
_cell_angle_beta   90.00000000
_cell_angle_gamma   59.99999991
_symmetry_Int_Tables_number   1
_chemical_formula_structural   HfZrS4
_chemical_formula_sum   'Hf1 Zr1 S4'
_cell_volume   328.75832125
_cell_formula_units_Z   1
loop_
 _symmetry_equiv_pos_site_id
 _symmetry_equiv_pos_as_xyz
  1  'x, y, z'
loop_
 _atom_site_type_symbol
 _atom_site_label
 _atom_site_symmetry_multiplicity
 _atom_site_fract_x
 _atom_site_fract_y
 _atom_site_fract_z
 _atom_site_occupancy
  Hf  Hf0  1  0.00000000  0.00000000  0.61166542  1
  Zr  Zr1  1  0.00000000  0.00000000  0.38831602  1
  S  S2  1  0.33333300  0.33333300  0.55997943  1
  S  S3  1  0.33333300  0.33333300  0.66355141  1
  S  S4  1  0.33333300  0.33333300  0.33573829  1
  S  S5  1  0.33333300  0.33333300  0.44066543  1
