# generated using pymatgen
data_Hf3(Ge2O7)2
_symmetry_space_group_name_H-M   'P 1'
_cell_length_a   5.71562436
_cell_length_b   5.71562500
_cell_length_c   30.00000000
_cell_angle_alpha   90.00000000
_cell_angle_beta   90.00000000
_cell_angle_gamma   60.00000209
_symmetry_Int_Tables_number   1
_chemical_formula_structural   Hf3(Ge2O7)2
_chemical_formula_sum   'Hf3 Ge4 O14'
_cell_volume   848.74905037
_cell_formula_units_Z   1
loop_
 _symmetry_equiv_pos_site_id
 _symmetry_equiv_pos_as_xyz
  1  'x, y, z'
loop_
 _atom_site_type_symbol
 _atom_site_label
 _atom_site_symmetry_multiplicity
 _atom_site_fract_x
 _atom_site_fract_y
 _atom_site_fract_z
 _atom_site_occupancy
  Hf  Hf0  1  0.66666700  0.66666700  0.42204425  1
  Hf  Hf1  1  0.33333300  0.33333300  0.42143818  1
  Hf  Hf2  1  0.00000000  0.00000000  0.42142353  1
  Ge  Ge3  1  0.00000000  0.00000000  0.58188088  1
  Ge  Ge4  1  0.00001195  0.50018287  0.58162644  1
  Ge  Ge5  1  0.49980518  0.00001195  0.58162644  1
  Ge  Ge6  1  0.50018287  0.49980518  0.58162644  1
  O  O7  1  0.33350954  0.99986745  0.45275623  1
  O  O8  1  0.66670510  0.00002952  0.39036718  1
  O  O9  1  0.33326539  0.66670510  0.39036718  1
  O  O10  1  0.00002952  0.33326539  0.39036718  1
  O  O11  1  0.83332112  0.83284930  0.61520373  1
  O  O12  1  0.66662301  0.33350954  0.45275623  1
  O  O13  1  0.33333300  0.33333300  0.61516115  1
  O  O14  1  0.33382858  0.83332112  0.61520373  1
  O  O15  1  0.66666700  0.66666700  0.54804110  1
  O  O16  1  0.66692535  0.16569083  0.54831871  1
  O  O17  1  0.16738482  0.66692535  0.54831871  1
  O  O18  1  0.16569083  0.16738482  0.54831871  1
  O  O19  1  0.83284930  0.33382858  0.61520373  1
  O  O20  1  0.99986745  0.66662301  0.45275623  1
