# generated using pymatgen
data_CrMo(SeS)2
_symmetry_space_group_name_H-M   'P 1'
_cell_length_a   3.19711628
_cell_length_b   3.19711600
_cell_length_c   30.00000000
_cell_angle_alpha   90.00000000
_cell_angle_beta   90.00000000
_cell_angle_gamma   60.00000291
_symmetry_Int_Tables_number   1
_chemical_formula_structural   CrMo(SeS)2
_chemical_formula_sum   'Cr1 Mo1 Se2 S2'
_cell_volume   265.56370881
_cell_formula_units_Z   1
loop_
 _symmetry_equiv_pos_site_id
 _symmetry_equiv_pos_as_xyz
  1  'x, y, z'
loop_
 _atom_site_type_symbol
 _atom_site_label
 _atom_site_symmetry_multiplicity
 _atom_site_fract_x
 _atom_site_fract_y
 _atom_site_fract_z
 _atom_site_occupancy
  Cr  Cr0  1  0.00000000  0.00000000  0.61333506  1
  Mo  Mo1  1  0.00000000  0.00000000  0.38701894  1
  Se  Se2  1  0.33333300  0.33333300  0.56103404  1
  Se  Se3  1  0.33333300  0.33333300  0.66566289  1
  S  S4  1  0.33333300  0.33333300  0.33513193  1
  S  S5  1  0.33333300  0.33333300  0.43883813  1
