# generated using pymatgen
data_ZrMo(SeO)2
_symmetry_space_group_name_H-M   'P 1'
_cell_length_a   3.29216430
_cell_length_b   3.29216500
_cell_length_c   30.00000000
_cell_angle_alpha   90.00000000
_cell_angle_beta   90.00000000
_cell_angle_gamma   60.00000298
_symmetry_Int_Tables_number   1
_chemical_formula_structural   ZrMo(SeO)2
_chemical_formula_sum   'Zr1 Mo1 Se2 O2'
_cell_volume   281.58855142
_cell_formula_units_Z   1
loop_
 _symmetry_equiv_pos_site_id
 _symmetry_equiv_pos_as_xyz
  1  'x, y, z'
loop_
 _atom_site_type_symbol
 _atom_site_label
 _atom_site_symmetry_multiplicity
 _atom_site_fract_x
 _atom_site_fract_y
 _atom_site_fract_z
 _atom_site_occupancy
  Zr  Zr0  1  0.00000000  0.00000000  0.58888930  1
  Mo  Mo1  1  0.00000000  0.00000000  0.38759608  1
  Se  Se2  1  0.33333300  0.33333300  0.33176844  1
  Se  Se3  1  0.33333300  0.33333300  0.44338727  1
  O  O4  1  0.33333300  0.33333300  0.55707696  1
  O  O5  1  0.66666700  0.66666700  0.62081295  1
