# generated using pymatgen
data_Ti7(Te3O4)2
_symmetry_space_group_name_H-M   'P 1'
_cell_length_a   6.22226600
_cell_length_b   6.22226650
_cell_length_c   30.00000000
_cell_angle_alpha   90.00000000
_cell_angle_beta   90.00000000
_cell_angle_gamma   60.00000265
_symmetry_Int_Tables_number   1
_chemical_formula_structural   Ti7(Te3O4)2
_chemical_formula_sum   'Ti7 Te6 O8'
_cell_volume   1005.88673042
_cell_formula_units_Z   1
loop_
 _symmetry_equiv_pos_site_id
 _symmetry_equiv_pos_as_xyz
  1  'x, y, z'
loop_
 _atom_site_type_symbol
 _atom_site_label
 _atom_site_symmetry_multiplicity
 _atom_site_fract_x
 _atom_site_fract_y
 _atom_site_fract_z
 _atom_site_occupancy
  Ti  Ti0  1  0.00000000  0.00000000  0.58240303  1
  Ti  Ti1  1  0.99312745  0.53256422  0.58957414  1
  Ti  Ti2  1  0.47430833  0.99312745  0.58957414  1
  Ti  Ti3  1  0.53256422  0.47430833  0.58957414  1
  Ti  Ti4  1  0.66666700  0.66666700  0.38581917  1
  Ti  Ti5  1  0.33333300  0.33333300  0.38680668  1
  Ti  Ti6  1  0.00000000  0.00000000  0.38697199  1
  Te  Te7  1  0.99838920  0.33532878  0.44742934  1
  Te  Te8  1  0.66686112  0.00097691  0.32509946  1
  Te  Te9  1  0.33216197  0.66686112  0.32509946  1
  Te  Te10  1  0.00097691  0.33216197  0.32509946  1
  Te  Te11  1  0.66628202  0.99838920  0.44742934  1
  Te  Te12  1  0.33532878  0.66628202  0.44742934  1
  O  O13  1  0.33333300  0.33333300  0.61666183  1
  O  O14  1  0.33301287  0.83255053  0.61950994  1
  O  O15  1  0.66666700  0.66666700  0.55734757  1
  O  O16  1  0.67674671  0.17350799  0.55517669  1
  O  O17  1  0.14974630  0.67674671  0.55517669  1
  O  O18  1  0.17350799  0.14974630  0.55517669  1
  O  O19  1  0.83443560  0.33301287  0.61950994  1
  O  O20  1  0.83255053  0.83443560  0.61950994  1
