# generated using pymatgen
data_HfTiSe4
_symmetry_space_group_name_H-M   'P 1'
_cell_length_a   6.20945854
_cell_length_b   6.20945854
_cell_length_c   30.00000000
_cell_angle_alpha   90.00000000
_cell_angle_beta   90.00000000
_cell_angle_gamma   59.99999420
_symmetry_Int_Tables_number   1
_chemical_formula_structural   HfTiSe4
_chemical_formula_sum   'Hf3 Ti3 Se12'
_cell_volume   1001.74993975
_cell_formula_units_Z   3
loop_
 _symmetry_equiv_pos_site_id
 _symmetry_equiv_pos_as_xyz
  1  'x, y, z'
loop_
 _atom_site_type_symbol
 _atom_site_label
 _atom_site_symmetry_multiplicity
 _atom_site_fract_x
 _atom_site_fract_y
 _atom_site_fract_z
 _atom_site_occupancy
  Hf  Hf0  1  0.00000000  0.00000000  0.61640182  1
  Hf  Hf1  1  0.33333300  0.33333300  0.61640182  1
  Hf  Hf2  1  0.66666700  0.66666700  0.61640182  1
  Ti  Ti3  1  0.66666700  0.66666700  0.38571387  1
  Ti  Ti4  1  0.33333300  0.33333300  0.38571387  1
  Ti  Ti5  1  0.00000000  0.00000000  0.38571387  1
  Se  Se6  1  0.33333300  0.00000000  0.43845065  1
  Se  Se7  1  0.00000000  0.66666700  0.33245940  1
  Se  Se8  1  0.66666700  0.33333300  0.33245940  1
  Se  Se9  1  0.33333300  0.00000000  0.33245940  1
  Se  Se10  1  0.00000000  0.66666700  0.67303691  1
  Se  Se11  1  0.66666700  0.33333300  0.67303691  1
  Se  Se12  1  0.33333300  0.00000000  0.67303691  1
  Se  Se13  1  0.00000000  0.66666700  0.55999636  1
  Se  Se14  1  0.66666700  0.33333300  0.55999636  1
  Se  Se15  1  0.33333300  0.00000000  0.55999636  1
  Se  Se16  1  0.66666700  0.33333300  0.43845065  1
  Se  Se17  1  0.00000000  0.66666700  0.43845065  1
