# generated using pymatgen
data_Sn3Pd4(S3O4)2
_symmetry_space_group_name_H-M   'P 1'
_cell_length_a   6.29461600
_cell_length_b   6.29461569
_cell_length_c   30.00000000
_cell_angle_alpha   90.00000000
_cell_angle_beta   90.00000000
_cell_angle_gamma   59.99999835
_symmetry_Int_Tables_number   1
_chemical_formula_structural   Sn3Pd4(S3O4)2
_chemical_formula_sum   'Sn3 Pd4 S6 O8'
_cell_volume   1029.41463951
_cell_formula_units_Z   1
loop_
 _symmetry_equiv_pos_site_id
 _symmetry_equiv_pos_as_xyz
  1  'x, y, z'
loop_
 _atom_site_type_symbol
 _atom_site_label
 _atom_site_symmetry_multiplicity
 _atom_site_fract_x
 _atom_site_fract_y
 _atom_site_fract_z
 _atom_site_occupancy
  Sn  Sn0  1  0.66666700  0.66666700  0.40585959  1
  Sn  Sn1  1  0.33333300  0.33333300  0.40643135  1
  Sn  Sn2  1  0.00000000  0.00000000  0.40632691  1
  Pd  Pd3  1  0.00000000  0.00000000  0.58071960  1
  Pd  Pd4  1  0.99988951  0.50007327  0.58065503  1
  Pd  Pd5  1  0.50003722  0.99988951  0.58065503  1
  Pd  Pd6  1  0.50007327  0.50003722  0.58065503  1
  S  S7  1  0.33512534  0.99799822  0.45597108  1
  S  S8  1  0.66656028  0.00117572  0.35622992  1
  S  S9  1  0.33226401  0.66656028  0.35622992  1
  S  S10  1  0.00117572  0.33226401  0.35622992  1
  S  S11  1  0.99799822  0.66687644  0.45597108  1
  S  S12  1  0.66687644  0.33512534  0.45597108  1
  O  O13  1  0.33333300  0.33333300  0.61200506  1
  O  O14  1  0.33333295  0.83276694  0.61199541  1
  O  O15  1  0.66666700  0.66666700  0.54920718  1
  O  O16  1  0.66661507  0.16562510  0.54940967  1
  O  O17  1  0.16776084  0.66661507  0.54940967  1
  O  O18  1  0.16562510  0.16776084  0.54940967  1
  O  O19  1  0.83389912  0.33333295  0.61199541  1
  O  O20  1  0.83276694  0.83389912  0.61199541  1
