# generated using pymatgen
data_Zr3Pd4(Se3O4)2
_symmetry_space_group_name_H-M   'P 1'
_cell_length_a   6.37971000
_cell_length_b   6.37971006
_cell_length_c   30.00000000
_cell_angle_alpha   90.00000000
_cell_angle_beta   90.00000000
_cell_angle_gamma   60.00000032
_symmetry_Int_Tables_number   1
_chemical_formula_structural   Zr3Pd4(Se3O4)2
_chemical_formula_sum   'Zr3 Pd4 Se6 O8'
_cell_volume   1057.43520998
_cell_formula_units_Z   1
loop_
 _symmetry_equiv_pos_site_id
 _symmetry_equiv_pos_as_xyz
  1  'x, y, z'
loop_
 _atom_site_type_symbol
 _atom_site_label
 _atom_site_symmetry_multiplicity
 _atom_site_fract_x
 _atom_site_fract_y
 _atom_site_fract_z
 _atom_site_occupancy
  Zr  Zr0  1  0.66666700  0.66666700  0.40214363  1
  Zr  Zr1  1  0.33333300  0.33333300  0.40338079  1
  Zr  Zr2  1  0.00000000  0.00000000  0.40347564  1
  Pd  Pd3  1  0.00000000  0.00000000  0.58060763  1
  Pd  Pd4  1  0.99981963  0.49996951  0.58061934  1
  Pd  Pd5  1  0.50021086  0.99981963  0.58061934  1
  Pd  Pd6  1  0.49996951  0.50021086  0.58061934  1
  Se  Se7  1  0.33492747  0.99829989  0.45710182  1
  Se  Se8  1  0.66666545  0.00136356  0.34825603  1
  Se  Se9  1  0.33197099  0.66666545  0.34825603  1
  Se  Se10  1  0.00136356  0.33197099  0.34825603  1
  Se  Se11  1  0.99829989  0.66677264  0.45710182  1
  Se  Se12  1  0.66677264  0.33492747  0.45710182  1
  O  O13  1  0.33333300  0.33333300  0.61112057  1
  O  O14  1  0.33311022  0.83292931  0.61116356  1
  O  O15  1  0.66666700  0.66666700  0.54990327  1
  O  O16  1  0.66673459  0.16568923  0.54999841  1
  O  O17  1  0.16757718  0.66673459  0.54999841  1
  O  O18  1  0.16568923  0.16757718  0.54999841  1
  O  O19  1  0.83395946  0.33311022  0.61116356  1
  O  O20  1  0.83292931  0.83395946  0.61116356  1
