# generated using pymatgen
data_Sn3(W2Se7)2
_symmetry_space_group_name_H-M   'P 1'
_cell_length_a   6.66489305
_cell_length_b   6.66489305
_cell_length_c   30.00000000
_cell_angle_alpha   90.00000000
_cell_angle_beta   90.00000000
_cell_angle_gamma   59.99998956
_symmetry_Int_Tables_number   1
_chemical_formula_structural   Sn3(W2Se7)2
_chemical_formula_sum   'Sn3 W4 Se14'
_cell_volume   1154.08610048
_cell_formula_units_Z   1
loop_
 _symmetry_equiv_pos_site_id
 _symmetry_equiv_pos_as_xyz
  1  'x, y, z'
loop_
 _atom_site_type_symbol
 _atom_site_label
 _atom_site_symmetry_multiplicity
 _atom_site_fract_x
 _atom_site_fract_y
 _atom_site_fract_z
 _atom_site_occupancy
  Sn  Sn0  1  0.00000000  0.00000000  0.60868164  1
  Sn  Sn1  1  0.33333300  0.33333300  0.60867981  1
  Sn  Sn2  1  0.66666700  0.66666700  0.60949981  1
  W  W3  1  0.50120330  0.49911393  0.38764272  1
  W  W4  1  0.49911393  0.99968276  0.38764272  1
  W  W5  1  0.00000000  0.00000000  0.38759370  1
  W  W6  1  0.99968276  0.50120330  0.38764272  1
  Se  Se7  1  0.66681496  0.00169766  0.66222258  1
  Se  Se8  1  0.00169766  0.33148738  0.66222258  1
  Se  Se9  1  0.99733673  0.66671995  0.55564771  1
  Se  Se10  1  0.66665322  0.16485760  0.44306466  1
  Se  Se11  1  0.66671995  0.33594332  0.55564771  1
  Se  Se12  1  0.33594332  0.99733673  0.55564771  1
  Se  Se13  1  0.16584773  0.16762680  0.33202099  1
  Se  Se14  1  0.16762680  0.66652647  0.33202099  1
  Se  Se15  1  0.66652647  0.16584773  0.33202099  1
  Se  Se16  1  0.66666700  0.66666700  0.33201029  1
  Se  Se17  1  0.16485760  0.16849018  0.44306466  1
  Se  Se18  1  0.16849018  0.66665322  0.44306466  1
  Se  Se19  1  0.33148738  0.66681496  0.66222258  1
  Se  Se20  1  0.66666700  0.66666700  0.44338078  1
