# generated using pymatgen
data_Hf4Sn3(Se3O4)2
_symmetry_space_group_name_H-M   'P 1'
_cell_length_a   6.59697890
_cell_length_b   6.59697890
_cell_length_c   30.00000000
_cell_angle_alpha   90.00000000
_cell_angle_beta   90.00000000
_cell_angle_gamma   60.00001102
_symmetry_Int_Tables_number   1
_chemical_formula_structural   Hf4Sn3(Se3O4)2
_chemical_formula_sum   'Hf4 Sn3 Se6 O8'
_cell_volume   1130.68628652
_cell_formula_units_Z   1
loop_
 _symmetry_equiv_pos_site_id
 _symmetry_equiv_pos_as_xyz
  1  'x, y, z'
loop_
 _atom_site_type_symbol
 _atom_site_label
 _atom_site_symmetry_multiplicity
 _atom_site_fract_x
 _atom_site_fract_y
 _atom_site_fract_z
 _atom_site_occupancy
  Hf  Hf0  1  0.00000000  0.00000000  0.58666549  1
  Hf  Hf1  1  0.99985975  0.50012391  0.58631012  1
  Hf  Hf2  1  0.50001633  0.99985975  0.58631012  1
  Hf  Hf3  1  0.50012391  0.50001633  0.58631012  1
  Sn  Sn4  1  0.66666700  0.66666700  0.39416825  1
  Sn  Sn5  1  0.33333300  0.33333300  0.39449862  1
  Sn  Sn6  1  0.00000000  0.00000000  0.39437854  1
  Se  Se7  1  0.33468845  0.66669557  0.44796093  1
  Se  Se8  1  0.00088831  0.66662926  0.34063508  1
  Se  Se9  1  0.66662926  0.33248244  0.34063508  1
  Se  Se10  1  0.33248244  0.00088831  0.34063508  1
  Se  Se11  1  0.99861598  0.33468845  0.44796093  1
  Se  Se12  1  0.66669557  0.99861598  0.44796093  1
  O  O13  1  0.33333300  0.33333300  0.61755095  1
  O  O14  1  0.33391291  0.83300154  0.61772088  1
  O  O15  1  0.66666700  0.66666700  0.55502186  1
  O  O16  1  0.66726320  0.16705255  0.55530175  1
  O  O17  1  0.16568526  0.66726320  0.55530175  1
  O  O18  1  0.16705255  0.16568526  0.55530175  1
  O  O19  1  0.83308455  0.33391291  0.61772088  1
  O  O20  1  0.83300154  0.83308455  0.61772088  1
