# generated using pymatgen
data_Sn4Mo7(S4O7)2
_symmetry_space_group_name_H-M   'P 1'
_cell_length_a   7.42518721
_cell_length_b   7.42518721
_cell_length_c   30.00000000
_cell_angle_alpha   90.00000000
_cell_angle_beta   90.00000000
_cell_angle_gamma   60.00000470
_symmetry_Int_Tables_number   1
_chemical_formula_structural   Sn4Mo7(S4O7)2
_chemical_formula_sum   'Sn4 Mo7 S8 O14'
_cell_volume   1432.40795183
_cell_formula_units_Z   1
loop_
 _symmetry_equiv_pos_site_id
 _symmetry_equiv_pos_as_xyz
  1  'x, y, z'
loop_
 _atom_site_type_symbol
 _atom_site_label
 _atom_site_symmetry_multiplicity
 _atom_site_fract_x
 _atom_site_fract_y
 _atom_site_fract_z
 _atom_site_occupancy
  Sn  Sn0  1  0.00000000  0.00000000  0.59685905  1
  Sn  Sn1  1  0.00017358  0.49989983  0.59708975  1
  Sn  Sn2  1  0.49992660  0.00017357  0.59708975  1
  Sn  Sn3  1  0.49989983  0.49992660  0.59708975  1
  Mo  Mo4  1  0.85723220  0.71414332  0.40671730  1
  Mo  Mo5  1  0.42862453  0.85723221  0.40671730  1
  Mo  Mo6  1  0.28561300  0.57152195  0.40692418  1
  Mo  Mo7  1  0.57152197  0.14286512  0.40692418  1
  Mo  Mo8  1  0.14286514  0.28561299  0.40692418  1
  Mo  Mo9  1  0.00000002  0.00000005  0.40693114  1
  Mo  Mo10  1  0.71414333  0.42862450  0.40671730  1
  S  S11  1  0.83359604  0.33284526  0.64606291  1
  S  S12  1  0.33333317  0.33333317  0.64612975  1
  S  S13  1  0.33284526  0.83355820  0.64606291  1
  S  S14  1  0.66666683  0.66666681  0.54851466  1
  S  S15  1  0.66638738  0.16701868  0.54803175  1
  S  S16  1  0.16659442  0.66638738  0.54803175  1
  S  S17  1  0.16701867  0.16659443  0.54803175  1
  S  S18  1  0.83355822  0.83359605  0.64606291  1
  O  O19  1  0.66666669  0.66666673  0.44786599  1
  O  O20  1  0.23850214  0.80977777  0.44825143  1
  O  O21  1  0.52365277  0.38146133  0.44826544  1
  O  O22  1  0.09488607  0.52365269  0.44826544  1
  O  O23  1  0.95172019  0.23850215  0.44825144  1
  O  O24  1  0.80961067  0.95256838  0.36548883  1
  O  O25  1  0.52349648  0.38094561  0.36548526  1
  O  O26  1  0.66666669  0.66666674  0.36526981  1
  O  O27  1  0.23782113  0.80961067  0.36548885  1
  O  O28  1  0.09555806  0.52349643  0.36548527  1
  O  O29  1  0.95256830  0.23782112  0.36548883  1
  O  O30  1  0.38146129  0.09488599  0.44826543  1
  O  O31  1  0.38094556  0.09555801  0.36548526  1
  O  O32  1  0.80977776  0.95172027  0.44825144  1
