# generated using pymatgen
data_Zr3Mo4(Se3S4)2
_symmetry_space_group_name_H-M   'P 1'
_cell_length_a   6.38989400
_cell_length_b   6.38989354
_cell_length_c   30.00000000
_cell_angle_alpha   90.00000000
_cell_angle_beta   90.00000000
_cell_angle_gamma   59.99999762
_symmetry_Int_Tables_number   1
_chemical_formula_structural   Zr3Mo4(Se3S4)2
_chemical_formula_sum   'Zr3 Mo4 Se6 S8'
_cell_volume   1060.81377948
_cell_formula_units_Z   1
loop_
 _symmetry_equiv_pos_site_id
 _symmetry_equiv_pos_as_xyz
  1  'x, y, z'
loop_
 _atom_site_type_symbol
 _atom_site_label
 _atom_site_symmetry_multiplicity
 _atom_site_fract_x
 _atom_site_fract_y
 _atom_site_fract_z
 _atom_site_occupancy
  Zr  Zr0  1  0.66666700  0.66666700  0.38385745  1
  Zr  Zr1  1  0.33333300  0.33333300  0.39265393  1
  Zr  Zr2  1  0.00000000  0.00000000  0.39447493  1
  Mo  Mo3  1  0.00000000  0.00000000  0.60682095  1
  Mo  Mo4  1  0.99988350  0.49925484  0.60681539  1
  Mo  Mo5  1  0.50086167  0.99988350  0.60681539  1
  Mo  Mo6  1  0.49925484  0.50086167  0.60681539  1
  Se  Se7  1  0.99186591  0.34309791  0.44648864  1
  Se  Se8  1  0.66800164  0.00815760  0.33394686  1
  Se  Se9  1  0.32384076  0.66800164  0.33394686  1
  Se  Se10  1  0.00815760  0.32384076  0.33394686  1
  Se  Se11  1  0.66503618  0.99186591  0.44648864  1
  Se  Se12  1  0.34309791  0.66503618  0.44648864  1
  S  S13  1  0.16604307  0.66659133  0.65873799  1
  S  S14  1  0.16736660  0.16604307  0.65873799  1
  S  S15  1  0.66666700  0.66666700  0.55484138  1
  S  S16  1  0.66648659  0.16826929  0.55505058  1
  S  S17  1  0.16524512  0.66648659  0.55505058  1
  S  S18  1  0.16826929  0.16524512  0.55505058  1
  S  S19  1  0.66666700  0.66666700  0.65872999  1
  S  S20  1  0.66659133  0.16736660  0.65873799  1
