# generated using pymatgen
data_NiMoS4
_symmetry_space_group_name_H-M   'P 1'
_cell_length_a   3.26882073
_cell_length_b   3.26882100
_cell_length_c   30.00000000
_cell_angle_alpha   90.00000000
_cell_angle_beta   90.00000000
_cell_angle_gamma   60.00000736
_symmetry_Int_Tables_number   1
_chemical_formula_structural   NiMoS4
_chemical_formula_sum   'Ni1 Mo1 S4'
_cell_volume   277.60939590
_cell_formula_units_Z   1
loop_
 _symmetry_equiv_pos_site_id
 _symmetry_equiv_pos_as_xyz
  1  'x, y, z'
loop_
 _atom_site_type_symbol
 _atom_site_label
 _atom_site_symmetry_multiplicity
 _atom_site_fract_x
 _atom_site_fract_y
 _atom_site_fract_z
 _atom_site_occupancy
  Ni  Ni0  1  0.00000000  0.00000000  0.59855391  1
  Mo  Mo1  1  0.00000000  0.00000000  0.38849384  1
  S  S2  1  0.33333300  0.33333300  0.55853744  1
  S  S3  1  0.66666700  0.66666700  0.63868662  1
  S  S4  1  0.33333300  0.33333300  0.33738062  1
  S  S5  1  0.33333300  0.33333300  0.43955157  1
