# generated using pymatgen
data_Zr3Cr4(Se3S4)2
_symmetry_space_group_name_H-M   'P 1'
_cell_length_a   6.25139800
_cell_length_b   6.25139759
_cell_length_c   30.00000000
_cell_angle_alpha   90.00000000
_cell_angle_beta   90.00000000
_cell_angle_gamma   59.99999781
_symmetry_Int_Tables_number   1
_chemical_formula_structural   Zr3Cr4(Se3S4)2
_chemical_formula_sum   'Zr3 Cr4 Se6 S8'
_cell_volume   1015.32749517
_cell_formula_units_Z   1
loop_
 _symmetry_equiv_pos_site_id
 _symmetry_equiv_pos_as_xyz
  1  'x, y, z'
loop_
 _atom_site_type_symbol
 _atom_site_label
 _atom_site_symmetry_multiplicity
 _atom_site_fract_x
 _atom_site_fract_y
 _atom_site_fract_z
 _atom_site_occupancy
  Zr  Zr0  1  0.66666700  0.66666700  0.38386426  1
  Zr  Zr1  1  0.33333300  0.33333300  0.39185305  1
  Zr  Zr2  1  0.00000000  0.00000000  0.39394655  1
  Cr  Cr3  1  0.00000000  0.00000000  0.60416722  1
  Cr  Cr4  1  0.99980204  0.49935807  0.60416357  1
  Cr  Cr5  1  0.50083989  0.99980204  0.60416357  1
  Cr  Cr6  1  0.49935807  0.50083989  0.60416357  1
  Se  Se7  1  0.99222053  0.34319941  0.44686885  1
  Se  Se8  1  0.66841682  0.00802697  0.33271603  1
  Se  Se9  1  0.32355622  0.66841682  0.33271603  1
  Se  Se10  1  0.00802697  0.32355622  0.33271603  1
  Se  Se11  1  0.66458006  0.99222053  0.44686885  1
  Se  Se12  1  0.34319941  0.66458006  0.44686885  1
  S  S13  1  0.16613328  0.66666661  0.65230283  1
  S  S14  1  0.16720112  0.16613328  0.65230283  1
  S  S15  1  0.66666700  0.66666700  0.55597669  1
  S  S16  1  0.66650562  0.16828138  0.55618757  1
  S  S17  1  0.16521399  0.66650562  0.55618757  1
  S  S18  1  0.16828138  0.16521399  0.55618757  1
  S  S19  1  0.66666700  0.66666700  0.65228873  1
  S  S20  1  0.66666661  0.16720112  0.65230283  1
