# generated using pymatgen
data_Zr4W7(S4O7)2
_symmetry_space_group_name_H-M   'P 1'
_cell_length_a   7.31814322
_cell_length_b   7.31814279
_cell_length_c   30.00000000
_cell_angle_alpha   90.00000000
_cell_angle_beta   90.00000000
_cell_angle_gamma   59.99999983
_symmetry_Int_Tables_number   1
_chemical_formula_structural   Zr4W7(S4O7)2
_chemical_formula_sum   'Zr4 W7 S8 O14'
_cell_volume   1391.40535197
_cell_formula_units_Z   1
loop_
 _symmetry_equiv_pos_site_id
 _symmetry_equiv_pos_as_xyz
  1  'x, y, z'
loop_
 _atom_site_type_symbol
 _atom_site_label
 _atom_site_symmetry_multiplicity
 _atom_site_fract_x
 _atom_site_fract_y
 _atom_site_fract_z
 _atom_site_occupancy
  Zr  Zr0  1  0.00000000  0.00000000  0.40852896  1
  Zr  Zr1  1  0.50043144  0.99943148  0.39644595  1
  Zr  Zr2  1  0.50013708  0.50043144  0.39644595  1
  Zr  Zr3  1  0.99943148  0.50013708  0.39644595  1
  W  W4  1  0.85720579  0.71418392  0.59391810  1
  W  W5  1  0.00000000  0.00000000  0.59376243  1
  W  W6  1  0.71418392  0.42861029  0.59391810  1
  W  W7  1  0.28560750  0.57149662  0.59377421  1
  W  W8  1  0.57149662  0.14289589  0.59377421  1
  W  W9  1  0.14289589  0.28560750  0.59377421  1
  W  W10  1  0.42861029  0.85720579  0.59391810  1
  S  S11  1  0.17106777  0.65778922  0.45166270  1
  S  S12  1  0.66666700  0.66666700  0.34504527  1
  S  S13  1  0.67440848  0.16292708  0.34885724  1
  S  S14  1  0.16266544  0.67440848  0.34885724  1
  S  S15  1  0.16292708  0.16266544  0.34885724  1
  S  S16  1  0.17114401  0.17106777  0.45166270  1
  S  S17  1  0.66666700  0.66666700  0.44809367  1
  S  S18  1  0.65778922  0.17114401  0.45166270  1
  O  O19  1  0.66666700  0.66666700  0.63601594  1
  O  O20  1  0.38097321  0.09548766  0.63586682  1
  O  O21  1  0.80960669  0.95251555  0.63585416  1
  O  O22  1  0.09548766  0.52353912  0.63586682  1
  O  O23  1  0.95251555  0.23787776  0.63585416  1
  O  O24  1  0.80974169  0.95182971  0.55177217  1
  O  O25  1  0.38138613  0.09493465  0.55178209  1
  O  O26  1  0.66666700  0.66666700  0.55205238  1
  O  O27  1  0.23842860  0.80974169  0.55177217  1
  O  O28  1  0.52367923  0.38138613  0.55178209  1
  O  O29  1  0.09493465  0.52367923  0.55178209  1
  O  O30  1  0.95182971  0.23842860  0.55177217  1
  O  O31  1  0.23787776  0.80960669  0.63585416  1
  O  O32  1  0.52353912  0.38097321  0.63586682  1
