# generated using pymatgen
data_HfNiS4
_symmetry_space_group_name_H-M   'P 1'
_cell_length_a   5.97265615
_cell_length_b   5.97265615
_cell_length_c   30.00000000
_cell_angle_alpha   90.00000000
_cell_angle_beta   90.00000000
_cell_angle_gamma   59.99999831
_symmetry_Int_Tables_number   1
_chemical_formula_structural   HfNiS4
_chemical_formula_sum   'Hf3 Ni3 S12'
_cell_volume   926.80187777
_cell_formula_units_Z   3
loop_
 _symmetry_equiv_pos_site_id
 _symmetry_equiv_pos_as_xyz
  1  'x, y, z'
loop_
 _atom_site_type_symbol
 _atom_site_label
 _atom_site_symmetry_multiplicity
 _atom_site_fract_x
 _atom_site_fract_y
 _atom_site_fract_z
 _atom_site_occupancy
  Hf  Hf0  1  0.66666700  0.66666700  0.40082850  1
  Hf  Hf1  1  0.33333300  0.33333300  0.40082850  1
  Hf  Hf2  1  0.00000000  0.00000000  0.40082850  1
  Ni  Ni3  1  0.00000000  0.00000000  0.58585466  1
  Ni  Ni4  1  0.33333300  0.33333300  0.58585466  1
  Ni  Ni5  1  0.66666700  0.66666700  0.58585466  1
  S  S6  1  0.33333300  0.00000000  0.45357426  1
  S  S7  1  0.00000000  0.66666700  0.34801306  1
  S  S8  1  0.66666700  0.33333300  0.34801306  1
  S  S9  1  0.33333300  0.00000000  0.34801306  1
  S  S10  1  0.00000000  0.66666700  0.62336399  1
  S  S11  1  0.66666700  0.33333300  0.62336399  1
  S  S12  1  0.33333300  0.00000000  0.62336399  1
  S  S13  1  0.66666700  0.00000000  0.54900154  1
  S  S14  1  0.33333300  0.66666700  0.54900154  1
  S  S15  1  0.00000000  0.33333300  0.54900154  1
  S  S16  1  0.66666700  0.33333300  0.45357426  1
  S  S17  1  0.00000000  0.66666700  0.45357426  1
