# generated using pymatgen
data_ZrTi(TeS)2
_symmetry_space_group_name_H-M   'P 1'
_cell_length_a   6.42330498
_cell_length_b   6.42330498
_cell_length_c   30.00000000
_cell_angle_alpha   90.00000000
_cell_angle_beta   90.00000000
_cell_angle_gamma   60.00001046
_symmetry_Int_Tables_number   1
_chemical_formula_structural   ZrTi(TeS)2
_chemical_formula_sum   'Zr3 Ti3 Te6 S6'
_cell_volume   1071.93640005
_cell_formula_units_Z   3
loop_
 _symmetry_equiv_pos_site_id
 _symmetry_equiv_pos_as_xyz
  1  'x, y, z'
loop_
 _atom_site_type_symbol
 _atom_site_label
 _atom_site_symmetry_multiplicity
 _atom_site_fract_x
 _atom_site_fract_y
 _atom_site_fract_z
 _atom_site_occupancy
  Zr  Zr0  1  0.00000000  0.00000000  0.60896491  1
  Zr  Zr1  1  0.33333300  0.33333300  0.60896491  1
  Zr  Zr2  1  0.66666700  0.66666700  0.60896491  1
  Ti  Ti3  1  0.66666700  0.66666700  0.37980624  1
  Ti  Ti4  1  0.33333300  0.33333300  0.37980624  1
  Ti  Ti5  1  0.00000000  0.00000000  0.37980624  1
  Te  Te6  1  0.33333300  0.00000000  0.43913114  1
  Te  Te7  1  0.00000000  0.66666700  0.31994593  1
  Te  Te8  1  0.66666700  0.33333300  0.31994593  1
  Te  Te9  1  0.33333300  0.00000000  0.31994593  1
  Te  Te10  1  0.00000000  0.66666700  0.43913114  1
  Te  Te11  1  0.66666700  0.33333300  0.43913114  1
  S  S12  1  0.66666700  0.00000000  0.65681784  1
  S  S13  1  0.33333300  0.66666700  0.65681784  1
  S  S14  1  0.00000000  0.66666700  0.56107993  1
  S  S15  1  0.66666700  0.33333300  0.56107993  1
  S  S16  1  0.33333300  0.00000000  0.56107993  1
  S  S17  1  0.00000000  0.33333300  0.65681784  1
