# generated using pymatgen
data_Cr3W4(Se3O4)2
_symmetry_space_group_name_H-M   'P 1'
_cell_length_a   5.61234668
_cell_length_b   5.61234700
_cell_length_c   30.00000000
_cell_angle_alpha   90.00000000
_cell_angle_beta   90.00000000
_cell_angle_gamma   60.00000403
_symmetry_Int_Tables_number   1
_chemical_formula_structural   Cr3W4(Se3O4)2
_chemical_formula_sum   'Cr3 W4 Se6 O8'
_cell_volume   818.35343373
_cell_formula_units_Z   1
loop_
 _symmetry_equiv_pos_site_id
 _symmetry_equiv_pos_as_xyz
  1  'x, y, z'
loop_
 _atom_site_type_symbol
 _atom_site_label
 _atom_site_symmetry_multiplicity
 _atom_site_fract_x
 _atom_site_fract_y
 _atom_site_fract_z
 _atom_site_occupancy
  Cr  Cr0  1  0.00000000  0.00000000  0.60193641  1
  Cr  Cr1  1  0.33333300  0.33333300  0.60194411  1
  Cr  Cr2  1  0.66666700  0.66666700  0.60223836  1
  W  W3  1  0.50013480  0.49989522  0.40695647  1
  W  W4  1  0.49989522  0.99996998  0.40695647  1
  W  W5  1  0.00000000  0.00000000  0.40694746  1
  W  W6  1  0.99996998  0.50013480  0.40695647  1
  Se  Se7  1  0.66668191  0.33283302  0.65398272  1
  Se  Se8  1  0.00048507  0.66668191  0.65398272  1
  Se  Se9  1  0.99870432  0.66664328  0.55022348  1
  Se  Se10  1  0.66664328  0.33465240  0.55022348  1
  Se  Se11  1  0.33465240  0.99870432  0.55022348  1
  Se  Se12  1  0.33283302  0.00048507  0.65398272  1
  O  O13  1  0.66662280  0.16605563  0.44851479  1
  O  O14  1  0.16658090  0.16671705  0.36533384  1
  O  O15  1  0.16671705  0.66670305  0.36533384  1
  O  O16  1  0.66670305  0.16658090  0.36533384  1
  O  O17  1  0.66666700  0.66666700  0.36535930  1
  O  O18  1  0.16605563  0.16732258  0.44851479  1
  O  O19  1  0.16732258  0.66662280  0.44851479  1
  O  O20  1  0.66666700  0.66666700  0.44862447  1
