# generated using pymatgen
data_Zr3Mo4(Se4S3)2
_symmetry_space_group_name_H-M   'P 1'
_cell_length_a   6.50675154
_cell_length_b   6.50675200
_cell_length_c   30.00000000
_cell_angle_alpha   90.00000000
_cell_angle_beta   90.00000000
_cell_angle_gamma   59.99999767
_symmetry_Int_Tables_number   1
_chemical_formula_structural   Zr3Mo4(Se4S3)2
_chemical_formula_sum   'Zr3 Mo4 Se8 S6'
_cell_volume   1099.96876803
_cell_formula_units_Z   1
loop_
 _symmetry_equiv_pos_site_id
 _symmetry_equiv_pos_as_xyz
  1  'x, y, z'
loop_
 _atom_site_type_symbol
 _atom_site_label
 _atom_site_symmetry_multiplicity
 _atom_site_fract_x
 _atom_site_fract_y
 _atom_site_fract_z
 _atom_site_occupancy
  Zr  Zr0  1  0.00000000  0.00000000  0.60231776  1
  Zr  Zr1  1  0.33333300  0.33333300  0.60253118  1
  Zr  Zr2  1  0.66666700  0.66666700  0.60319282  1
  Mo  Mo3  1  0.49929038  0.50095430  0.38896790  1
  Mo  Mo4  1  0.50095430  0.99975531  0.38896790  1
  Mo  Mo5  1  0.00000000  0.00000000  0.38896153  1
  Mo  Mo6  1  0.99975531  0.49929038  0.38896790  1
  Se  Se7  1  0.66652180  0.16815874  0.44513107  1
  Se  Se8  1  0.16736198  0.16600336  0.33266616  1
  Se  Se9  1  0.16600336  0.66663566  0.33266616  1
  Se  Se10  1  0.66663566  0.16736198  0.33266616  1
  Se  Se11  1  0.66666700  0.66666700  0.33263915  1
  Se  Se12  1  0.16815874  0.16532046  0.44513107  1
  Se  Se13  1  0.16532046  0.66652180  0.44513107  1
  Se  Se14  1  0.66666700  0.66666700  0.44538545  1
  S  S15  1  0.66677544  0.33245370  0.64980163  1
  S  S16  1  0.00077087  0.66677544  0.64980163  1
  S  S17  1  0.66655862  0.99896799  0.55567960  1
  S  S18  1  0.33447338  0.66655862  0.55567960  1
  S  S19  1  0.99896799  0.33447338  0.55567960  1
  S  S20  1  0.33245370  0.00077087  0.64980163  1
