# generated using pymatgen
data_ZrSn(TeSe)2
_symmetry_space_group_name_H-M   'P 1'
_cell_length_a   3.89178416
_cell_length_b   3.89178400
_cell_length_c   30.00000000
_cell_angle_alpha   90.00000000
_cell_angle_beta   90.00000000
_cell_angle_gamma   60.00000140
_symmetry_Int_Tables_number   1
_chemical_formula_structural   ZrSn(TeSe)2
_chemical_formula_sum   'Zr1 Sn1 Te2 Se2'
_cell_volume   393.50419575
_cell_formula_units_Z   1
loop_
 _symmetry_equiv_pos_site_id
 _symmetry_equiv_pos_as_xyz
  1  'x, y, z'
loop_
 _atom_site_type_symbol
 _atom_site_label
 _atom_site_symmetry_multiplicity
 _atom_site_fract_x
 _atom_site_fract_y
 _atom_site_fract_z
 _atom_site_occupancy
  Zr  Zr0  1  0.00000000  0.00000000  0.37411869  1
  Sn  Sn1  1  0.00000000  0.00000000  0.61703311  1
  Te  Te2  1  0.33333300  0.33333300  0.31155952  1
  Te  Te3  1  0.33333300  0.33333300  0.43634989  1
  Se  Se4  1  0.33333300  0.33333300  0.56408710  1
  Se  Se5  1  0.66666700  0.66666700  0.66989968  1
