# generated using pymatgen
data_SnPd(SeS)2
_symmetry_space_group_name_H-M   'P 1'
_cell_length_a   3.71348222
_cell_length_b   3.71348200
_cell_length_c   30.00000000
_cell_angle_alpha   90.00000000
_cell_angle_beta   90.00000000
_cell_angle_gamma   60.00000194
_symmetry_Int_Tables_number   1
_chemical_formula_structural   SnPd(SeS)2
_chemical_formula_sum   'Sn1 Pd1 Se2 S2'
_cell_volume   358.27340123
_cell_formula_units_Z   1
loop_
 _symmetry_equiv_pos_site_id
 _symmetry_equiv_pos_as_xyz
  1  'x, y, z'
loop_
 _atom_site_type_symbol
 _atom_site_label
 _atom_site_symmetry_multiplicity
 _atom_site_fract_x
 _atom_site_fract_y
 _atom_site_fract_z
 _atom_site_occupancy
  Sn  Sn0  1  0.00000000  0.00000000  0.40560826  1
  Pd  Pd1  1  0.00000000  0.00000000  0.58865361  1
  Se  Se2  1  0.33333300  0.33333300  0.54518585  1
  Se  Se3  1  0.66666700  0.66666700  0.63301063  1
  S  S4  1  0.33333300  0.33333300  0.35656134  1
  S  S5  1  0.66666700  0.66666700  0.45476430  1
