# generated using pymatgen
data_Hf4W7(Se4O7)2
_symmetry_space_group_name_H-M   'P 1'
_cell_length_a   7.42426492
_cell_length_b   7.42426493
_cell_length_c   30.00000000
_cell_angle_alpha   90.00000000
_cell_angle_beta   90.00000000
_cell_angle_gamma   59.99999595
_symmetry_Int_Tables_number   1
_chemical_formula_structural   Hf4W7(Se4O7)2
_chemical_formula_sum   'Hf4 W7 Se8 O14'
_cell_volume   1432.05200563
_cell_formula_units_Z   1
loop_
 _symmetry_equiv_pos_site_id
 _symmetry_equiv_pos_as_xyz
  1  'x, y, z'
loop_
 _atom_site_type_symbol
 _atom_site_label
 _atom_site_symmetry_multiplicity
 _atom_site_fract_x
 _atom_site_fract_y
 _atom_site_fract_z
 _atom_site_occupancy
  Hf  Hf0  1  0.00000000  0.00000000  0.60282025  1
  Hf  Hf1  1  0.99992984  0.50039848  0.60452581  1
  Hf  Hf2  1  0.49967168  0.99992984  0.60452581  1
  Hf  Hf3  1  0.50039848  0.49967168  0.60452581  1
  W  W4  1  0.85699082  0.71436542  0.40627712  1
  W  W5  1  0.71436542  0.42864376  0.40627712  1
  W  W6  1  0.57142856  0.14299457  0.40630407  1
  W  W7  1  0.28557686  0.57142856  0.40630407  1
  W  W8  1  0.14299457  0.28557686  0.40630407  1
  W  W9  1  0.00000000  0.00000000  0.40598600  1
  W  W10  1  0.42864376  0.85699082  0.40627712  1
  Se  Se11  1  0.66666700  0.66666700  0.65982575  1
  Se  Se12  1  0.16598533  0.66801911  0.65938661  1
  Se  Se13  1  0.16599656  0.16598533  0.65938661  1
  Se  Se14  1  0.66666700  0.66666700  0.54919980  1
  Se  Se15  1  0.66471650  0.16618752  0.54895459  1
  Se  Se16  1  0.16909697  0.66471650  0.54895459  1
  Se  Se17  1  0.16618752  0.16909697  0.54895459  1
  Se  Se18  1  0.66801911  0.16599656  0.65938661  1
  O  O19  1  0.61899663  0.90507592  0.44793116  1
  O  O20  1  0.76277193  0.19036224  0.44768186  1
  O  O21  1  0.47592745  0.61899663  0.44793116  1
  O  O22  1  0.33333300  0.33333300  0.44802279  1
  O  O23  1  0.19036224  0.04686583  0.44768186  1
  O  O24  1  0.04755730  0.76151852  0.36453781  1
  O  O25  1  0.47618785  0.61896077  0.36467933  1
  O  O26  1  0.61896077  0.90485137  0.36467933  1
  O  O27  1  0.76151852  0.19092417  0.36453781  1
  O  O28  1  0.33333300  0.33333300  0.36470733  1
  O  O29  1  0.19092417  0.04755730  0.36453781  1
  O  O30  1  0.90507592  0.47592745  0.44793116  1
  O  O31  1  0.90485137  0.47618785  0.36467933  1
  O  O32  1  0.04686583  0.76277193  0.44768186  1
