# generated using pymatgen
data_Sn4Te6Pt3O8
_symmetry_space_group_name_H-M   'P 1'
_cell_length_a   6.70188800
_cell_length_b   6.70188777
_cell_length_c   30.00000000
_cell_angle_alpha   90.00000000
_cell_angle_beta   90.00000000
_cell_angle_gamma   59.99999888
_symmetry_Int_Tables_number   1
_chemical_formula_structural   Sn4Te6Pt3O8
_chemical_formula_sum   'Sn4 Te6 Pt3 O8'
_cell_volume   1166.93374384
_cell_formula_units_Z   1
loop_
 _symmetry_equiv_pos_site_id
 _symmetry_equiv_pos_as_xyz
  1  'x, y, z'
loop_
 _atom_site_type_symbol
 _atom_site_label
 _atom_site_symmetry_multiplicity
 _atom_site_fract_x
 _atom_site_fract_y
 _atom_site_fract_z
 _atom_site_occupancy
  Sn  Sn0  1  0.00035242  0.49970833  0.41445823  1
  Sn  Sn1  1  0.49970833  0.49993925  0.41445823  1
  Sn  Sn2  1  0.49993925  0.00035242  0.41445823  1
  Sn  Sn3  1  0.00000000  0.00000000  0.41417825  1
  Te  Te4  1  0.00700908  0.33410219  0.54692268  1
  Te  Te5  1  0.33410219  0.65888874  0.54692268  1
  Te  Te6  1  0.65888874  0.00700908  0.54692268  1
  Te  Te7  1  0.33263637  0.99408458  0.64490529  1
  Te  Te8  1  0.67327905  0.33263637  0.64490529  1
  Te  Te9  1  0.99408458  0.67327905  0.64490529  1
  Pt  Pt10  1  0.00000000  0.00000000  0.59440260  1
  Pt  Pt11  1  0.66666700  0.66666700  0.59475013  1
  Pt  Pt12  1  0.33333300  0.33333300  0.59766242  1
  O  O13  1  0.16590152  0.16775843  0.38280627  1
  O  O14  1  0.16775843  0.66634104  0.38280627  1
  O  O15  1  0.66634104  0.16590152  0.38280627  1
  O  O16  1  0.66666700  0.66666700  0.38304630  1
  O  O17  1  0.33284028  0.83572422  0.44718715  1
  O  O18  1  0.33333300  0.33333300  0.44739244  1
  O  O19  1  0.83572422  0.83143450  0.44718715  1
  O  O20  1  0.83143450  0.33284028  0.44718715  1
