# generated using pymatgen
data_Pt3(W2Se7)2
_symmetry_space_group_name_H-M   'P 1'
_cell_length_a   6.56301276
_cell_length_b   6.56301300
_cell_length_c   30.00000000
_cell_angle_alpha   90.00000000
_cell_angle_beta   90.00000000
_cell_angle_gamma   60.00000385
_symmetry_Int_Tables_number   1
_chemical_formula_structural   Pt3(W2Se7)2
_chemical_formula_sum   'Pt3 W4 Se14'
_cell_volume   1119.07299770
_cell_formula_units_Z   1
loop_
 _symmetry_equiv_pos_site_id
 _symmetry_equiv_pos_as_xyz
  1  'x, y, z'
loop_
 _atom_site_type_symbol
 _atom_site_label
 _atom_site_symmetry_multiplicity
 _atom_site_fract_x
 _atom_site_fract_y
 _atom_site_fract_z
 _atom_site_occupancy
  Pt  Pt0  1  0.00000000  0.00000000  0.59614517  1
  Pt  Pt1  1  0.33333300  0.33333300  0.59639841  1
  Pt  Pt2  1  0.66666700  0.66666700  0.59775024  1
  W  W3  1  0.49903041  0.50127877  0.38959395  1
  W  W4  1  0.50127877  0.99969082  0.38959395  1
  W  W5  1  0.00000000  0.00000000  0.38955278  1
  W  W6  1  0.99969082  0.49903041  0.38959395  1
  Se  Se7  1  0.66707076  0.33017794  0.63968180  1
  Se  Se8  1  0.00275130  0.66707076  0.63968180  1
  Se  Se9  1  0.66611520  0.99619782  0.55424384  1
  Se  Se10  1  0.66658736  0.16887831  0.44565950  1
  Se  Se11  1  0.33768698  0.66611520  0.55424384  1
  Se  Se12  1  0.99619782  0.33768698  0.55424384  1
  Se  Se13  1  0.16763686  0.16579763  0.33334980  1
  Se  Se14  1  0.16579763  0.66656651  0.33334980  1
  Se  Se15  1  0.66656651  0.16763686  0.33334980  1
  Se  Se16  1  0.66666700  0.66666700  0.33334254  1
  Se  Se17  1  0.16887831  0.16453533  0.44565950  1
  Se  Se18  1  0.16453533  0.66658736  0.44565950  1
  Se  Se19  1  0.33017794  0.00275130  0.63968180  1
  Se  Se20  1  0.66666700  0.66666700  0.44601418  1
