# generated using pymatgen
data_Zr3Ge4(S3O4)2
_symmetry_space_group_name_H-M   'P 1'
_cell_length_a   5.99300000
_cell_length_b   5.99299979
_cell_length_c   30.00000000
_cell_angle_alpha   90.00000000
_cell_angle_beta   90.00000000
_cell_angle_gamma   59.99999883
_symmetry_Int_Tables_number   1
_chemical_formula_structural   Zr3Ge4(S3O4)2
_chemical_formula_sum   'Zr3 Ge4 S6 O8'
_cell_volume   933.12628110
_cell_formula_units_Z   1
loop_
 _symmetry_equiv_pos_site_id
 _symmetry_equiv_pos_as_xyz
  1  'x, y, z'
loop_
 _atom_site_type_symbol
 _atom_site_label
 _atom_site_symmetry_multiplicity
 _atom_site_fract_x
 _atom_site_fract_y
 _atom_site_fract_z
 _atom_site_occupancy
  Zr  Zr0  1  0.66666633  0.66666631  0.38901885  1
  Zr  Zr1  1  0.33333371  0.33333369  0.40095129  1
  Zr  Zr2  1  0.99999997  0.00000002  0.40155521  1
  Ge  Ge3  1  1.00000000  0.00000001  0.58521292  1
  Ge  Ge4  1  0.99992665  0.49992551  0.58509711  1
  Ge  Ge5  1  0.50014782  0.99992667  0.58509711  1
  Ge  Ge6  1  0.49992552  0.50014782  0.58509711  1
  S  S7  1  0.98800973  0.34600490  0.45038914  1
  S  S8  1  0.66723670  0.01275132  0.34386211  1
  S  S9  1  0.32001226  0.66723663  0.34386218  1
  S  S10  1  0.01275120  0.32001209  0.34386213  1
  S  S11  1  0.66598530  0.98800985  0.45038913  1
  S  S12  1  0.34600488  0.66598523  0.45038909  1
  O  O13  1  0.33333357  0.33333344  0.61687389  1
  O  O14  1  0.33346777  0.83286406  0.61693333  1
  O  O15  1  0.66666636  0.66666660  0.55328545  1
  O  O16  1  0.66675932  0.16747905  0.55338410  1
  O  O17  1  0.16576108  0.66675920  0.55338410  1
  O  O18  1  0.16747912  0.16576105  0.55338410  1
  O  O19  1  0.83366868  0.33346782  0.61693334  1
  O  O20  1  0.83286402  0.83366873  0.61693333  1
