# generated using pymatgen
data_Sn4Pd3(Se3O4)2
_symmetry_space_group_name_H-M   'P 1'
_cell_length_a   6.45506365
_cell_length_b   6.45506365
_cell_length_c   30.00000000
_cell_angle_alpha   90.00000000
_cell_angle_beta   90.00000000
_cell_angle_gamma   60.00000361
_symmetry_Int_Tables_number   1
_chemical_formula_structural   Sn4Pd3(Se3O4)2
_chemical_formula_sum   'Sn4 Pd3 Se6 O8'
_cell_volume   1082.56245213
_cell_formula_units_Z   1
loop_
 _symmetry_equiv_pos_site_id
 _symmetry_equiv_pos_as_xyz
  1  'x, y, z'
loop_
 _atom_site_type_symbol
 _atom_site_label
 _atom_site_symmetry_multiplicity
 _atom_site_fract_x
 _atom_site_fract_y
 _atom_site_fract_z
 _atom_site_occupancy
  Sn  Sn0  1  0.00022116  0.50020866  0.41607609  1
  Sn  Sn1  1  0.50020866  0.49957018  0.41607609  1
  Sn  Sn2  1  0.49957018  0.00022116  0.41607609  1
  Sn  Sn3  1  0.00000000  0.00000000  0.41573385  1
  Pd  Pd4  1  0.00000000  0.00000000  0.59100791  1
  Pd  Pd5  1  0.66666700  0.66666700  0.59112635  1
  Pd  Pd6  1  0.33333300  0.33333300  0.59249455  1
  Se  Se7  1  0.00397195  0.66234116  0.54809285  1
  Se  Se8  1  0.33306424  0.66985720  0.63544443  1
  Se  Se9  1  0.66985720  0.99707856  0.63544443  1
  Se  Se10  1  0.99707856  0.33306424  0.63544443  1
  Se  Se11  1  0.33368690  0.00397195  0.54809285  1
  Se  Se12  1  0.66234116  0.33368690  0.54809285  1
  O  O13  1  0.83218248  0.83500974  0.44994878  1
  O  O14  1  0.16733829  0.16643029  0.38231903  1
  O  O15  1  0.16643029  0.66623242  0.38231903  1
  O  O16  1  0.66623242  0.16733829  0.38231903  1
  O  O17  1  0.66666700  0.66666700  0.38251140  1
  O  O18  1  0.33280678  0.83218248  0.44994878  1
  O  O19  1  0.33333300  0.33333300  0.45021339  1
  O  O20  1  0.83500974  0.33280678  0.44994878  1
