# generated using pymatgen
data_Zr3Ni4(Se3S4)2
_symmetry_space_group_name_H-M   'P 1'
_cell_length_a   6.63946134
_cell_length_b   6.63946100
_cell_length_c   30.00000000
_cell_angle_alpha   90.00000000
_cell_angle_beta   90.00000000
_cell_angle_gamma   59.99999672
_symmetry_Int_Tables_number   1
_chemical_formula_structural   Zr3Ni4(Se3S4)2
_chemical_formula_sum   'Zr3 Ni4 Se6 S8'
_cell_volume   1145.29546984
_cell_formula_units_Z   1
loop_
 _symmetry_equiv_pos_site_id
 _symmetry_equiv_pos_as_xyz
  1  'x, y, z'
loop_
 _atom_site_type_symbol
 _atom_site_label
 _atom_site_symmetry_multiplicity
 _atom_site_fract_x
 _atom_site_fract_y
 _atom_site_fract_z
 _atom_site_occupancy
  Zr  Zr0  1  0.66666700  0.66666700  0.39509602  1
  Zr  Zr1  1  0.33333300  0.33333300  0.39572995  1
  Zr  Zr2  1  0.00000000  0.00000000  0.39655670  1
  Ni  Ni3  1  0.00000000  0.00000000  0.59228017  1
  Ni  Ni4  1  0.99965618  0.49844563  0.59237979  1
  Ni  Ni5  1  0.50189819  0.99965618  0.59237979  1
  Ni  Ni6  1  0.49844563  0.50189819  0.59237979  1
  Se  Se7  1  0.33484317  0.66604432  0.44787441  1
  Se  Se8  1  0.00070204  0.66723016  0.34349325  1
  Se  Se9  1  0.66723016  0.33206780  0.34349325  1
  Se  Se10  1  0.33206780  0.00070204  0.34349325  1
  Se  Se11  1  0.99911252  0.33484317  0.44787441  1
  Se  Se12  1  0.66604432  0.99911252  0.44787441  1
  S  S13  1  0.33333300  0.33333300  0.63163752  1
  S  S14  1  0.33305319  0.83551210  0.63172397  1
  S  S15  1  0.66666700  0.66666700  0.55301844  1
  S  S16  1  0.66622714  0.16944537  0.55331598  1
  S  S17  1  0.16432850  0.66622714  0.55331598  1
  S  S18  1  0.16944537  0.16432850  0.55331598  1
  S  S19  1  0.83143371  0.33305319  0.63172397  1
  S  S20  1  0.83551210  0.83143371  0.63172397  1
