# generated using pymatgen
data_Ti4Sn3(Se3S4)2
_symmetry_space_group_name_H-M   'P 1'
_cell_length_a   6.68916627
_cell_length_b   6.68916627
_cell_length_c   30.00000000
_cell_angle_alpha   90.00000000
_cell_angle_beta   90.00000000
_cell_angle_gamma   59.99999731
_symmetry_Int_Tables_number   1
_chemical_formula_structural   Ti4Sn3(Se3S4)2
_chemical_formula_sum   'Ti4 Sn3 Se6 S8'
_cell_volume   1162.50775104
_cell_formula_units_Z   1
loop_
 _symmetry_equiv_pos_site_id
 _symmetry_equiv_pos_as_xyz
  1  'x, y, z'
loop_
 _atom_site_type_symbol
 _atom_site_label
 _atom_site_symmetry_multiplicity
 _atom_site_fract_x
 _atom_site_fract_y
 _atom_site_fract_z
 _atom_site_occupancy
  Ti  Ti0  1  0.99941224  0.50091696  0.39694641  1
  Ti  Ti1  1  0.50091696  0.49967080  0.39694641  1
  Ti  Ti2  1  0.49967080  0.99941224  0.39694641  1
  Ti  Ti3  1  0.00000000  0.00000000  0.38867580  1
  Sn  Sn4  1  0.00000000  0.00000000  0.60657546  1
  Sn  Sn5  1  0.66666700  0.66666700  0.60717985  1
  Sn  Sn6  1  0.33333300  0.33333300  0.60656809  1
  Se  Se7  1  0.99793384  0.66679888  0.55369293  1
  Se  Se8  1  0.33195195  0.66663210  0.65996247  1
  Se  Se9  1  0.66663210  0.00141595  0.65996247  1
  Se  Se10  1  0.00141595  0.33195195  0.65996247  1
  Se  Se11  1  0.33526728  0.99793384  0.55369293  1
  Se  Se12  1  0.66679888  0.33526728  0.55369293  1
  S  S13  1  0.67143839  0.16192870  0.44418382  1
  S  S14  1  0.16938667  0.17003380  0.34407848  1
  S  S15  1  0.17003380  0.66058053  0.34407848  1
  S  S16  1  0.66058053  0.16938667  0.34407848  1
  S  S17  1  0.66666700  0.66666700  0.34650071  1
  S  S18  1  0.16192870  0.16663391  0.44418382  1
  S  S19  1  0.16663391  0.67143839  0.44418382  1
  S  S20  1  0.66666700  0.66666700  0.44694579  1
