# generated using pymatgen
data_NiSn(SeO)2
_symmetry_space_group_name_H-M   'P 1'
_cell_length_a   5.85890872
_cell_length_b   5.85890872
_cell_length_c   30.00000000
_cell_angle_alpha   90.00000000
_cell_angle_beta   90.00000000
_cell_angle_gamma   59.99999185
_symmetry_Int_Tables_number   1
_chemical_formula_structural   NiSn(SeO)2
_chemical_formula_sum   'Ni3 Sn3 Se6 O6'
_cell_volume   891.83664814
_cell_formula_units_Z   3
loop_
 _symmetry_equiv_pos_site_id
 _symmetry_equiv_pos_as_xyz
  1  'x, y, z'
loop_
 _atom_site_type_symbol
 _atom_site_label
 _atom_site_symmetry_multiplicity
 _atom_site_fract_x
 _atom_site_fract_y
 _atom_site_fract_z
 _atom_site_occupancy
  Ni  Ni0  1  0.00000000  0.00000000  0.58773470  1
  Ni  Ni1  1  0.33333300  0.33333300  0.58773470  1
  Ni  Ni2  1  0.66666700  0.66666700  0.58773470  1
  Sn  Sn3  1  0.66666700  0.66666700  0.41975080  1
  Sn  Sn4  1  0.33333300  0.33333300  0.41975080  1
  Sn  Sn5  1  0.00000000  0.00000000  0.41975080  1
  Se  Se6  1  0.66666700  0.00000000  0.63251077  1
  Se  Se7  1  0.00000000  0.33333300  0.63251077  1
  Se  Se8  1  0.00000000  0.66666700  0.54369143  1
  Se  Se9  1  0.66666700  0.33333300  0.54369143  1
  Se  Se10  1  0.33333300  0.00000000  0.54369143  1
  Se  Se11  1  0.33333300  0.66666700  0.63251077  1
  O  O12  1  0.66666700  0.00000000  0.45198242  1
  O  O13  1  0.33333300  0.00000000  0.38868688  1
  O  O14  1  0.66666700  0.33333300  0.38868688  1
  O  O15  1  0.00000000  0.66666700  0.38868688  1
  O  O16  1  0.33333300  0.66666700  0.45198242  1
  O  O17  1  0.00000000  0.33333300  0.45198242  1
