# generated using pymatgen
data_Zr3Pt4(Se3O4)2
_symmetry_space_group_name_H-M   'P 1'
_cell_length_a   6.42867400
_cell_length_b   6.42867400
_cell_length_c   30.00000000
_cell_angle_alpha   90.00000000
_cell_angle_beta   90.00000000
_cell_angle_gamma   59.99999997
_symmetry_Int_Tables_number   1
_chemical_formula_structural   Zr3Pt4(Se3O4)2
_chemical_formula_sum   'Zr3 Pt4 Se6 O8'
_cell_volume   1073.72902453
_cell_formula_units_Z   1
loop_
 _symmetry_equiv_pos_site_id
 _symmetry_equiv_pos_as_xyz
  1  'x, y, z'
loop_
 _atom_site_type_symbol
 _atom_site_label
 _atom_site_symmetry_multiplicity
 _atom_site_fract_x
 _atom_site_fract_y
 _atom_site_fract_z
 _atom_site_occupancy
  Zr  Zr0  1  0.66666700  0.66666700  0.40040633  1
  Zr  Zr1  1  0.33333300  0.33333300  0.40189651  1
  Zr  Zr2  1  0.00000000  0.00000000  0.40185164  1
  Pt  Pt3  1  0.00000000  0.00000000  0.58078028  1
  Pt  Pt4  1  0.99986461  0.50008239  0.58075456  1
  Pt  Pt5  1  0.50005300  0.99986461  0.58075456  1
  Pt  Pt6  1  0.50008239  0.50005300  0.58075456  1
  Se  Se7  1  0.33537127  0.66689072  0.45515480  1
  Se  Se8  1  0.00171688  0.66655473  0.34725986  1
  Se  Se9  1  0.66655473  0.33172839  0.34725986  1
  Se  Se10  1  0.33172839  0.00171688  0.34725986  1
  Se  Se11  1  0.99773801  0.33537127  0.45515480  1
  Se  Se12  1  0.66689072  0.99773801  0.45515480  1
  O  O13  1  0.33333300  0.33333300  0.61098836  1
  O  O14  1  0.33329820  0.83366119  0.61099649  1
  O  O15  1  0.66666700  0.66666700  0.55053024  1
  O  O16  1  0.66673984  0.16744808  0.55069685  1
  O  O17  1  0.16581308  0.66673984  0.55069685  1
  O  O18  1  0.16744808  0.16581308  0.55069685  1
  O  O19  1  0.83303961  0.33329820  0.61099649  1
  O  O20  1  0.83366119  0.83303961  0.61099649  1
