# generated using pymatgen
data_NiPd(SeS)2
_symmetry_space_group_name_H-M   'P 1'
_cell_length_a   6.14424589
_cell_length_b   6.14424589
_cell_length_c   30.00000000
_cell_angle_alpha   90.00000000
_cell_angle_beta   90.00000000
_cell_angle_gamma   60.00000115
_symmetry_Int_Tables_number   1
_chemical_formula_structural   NiPd(SeS)2
_chemical_formula_sum   'Ni3 Pd3 Se6 S6'
_cell_volume   980.81944488
_cell_formula_units_Z   3
loop_
 _symmetry_equiv_pos_site_id
 _symmetry_equiv_pos_as_xyz
  1  'x, y, z'
loop_
 _atom_site_type_symbol
 _atom_site_label
 _atom_site_symmetry_multiplicity
 _atom_site_fract_x
 _atom_site_fract_y
 _atom_site_fract_z
 _atom_site_occupancy
  Ni  Ni0  1  0.00000000  0.00000000  0.59978146  1
  Ni  Ni1  1  0.33333300  0.33333300  0.59978146  1
  Ni  Ni2  1  0.66666700  0.66666700  0.59978146  1
  Pd  Pd3  1  0.66666700  0.66666700  0.40025350  1
  Pd  Pd4  1  0.33333300  0.33333300  0.40025350  1
  Pd  Pd5  1  0.00000000  0.00000000  0.40025350  1
  Se  Se6  1  0.66666700  0.33333300  0.64103329  1
  Se  Se7  1  0.00000000  0.66666700  0.64103329  1
  Se  Se8  1  0.66666700  0.00000000  0.55873119  1
  Se  Se9  1  0.33333300  0.66666700  0.55873119  1
  Se  Se10  1  0.00000000  0.33333300  0.55873119  1
  Se  Se11  1  0.33333300  0.00000000  0.64103329  1
  S  S12  1  0.66666700  0.00000000  0.44152092  1
  S  S13  1  0.33333300  0.00000000  0.35875264  1
  S  S14  1  0.66666700  0.33333300  0.35875264  1
  S  S15  1  0.00000000  0.66666700  0.35875264  1
  S  S16  1  0.33333300  0.66666700  0.44152092  1
  S  S17  1  0.00000000  0.33333300  0.44152092  1
