# generated using pymatgen
data_ZrGeS4
_symmetry_space_group_name_H-M   'P 1'
_cell_length_a   3.50706219
_cell_length_b   3.50706200
_cell_length_c   30.00000000
_cell_angle_alpha   90.00000000
_cell_angle_beta   90.00000000
_cell_angle_gamma   60.00000176
_symmetry_Int_Tables_number   1
_chemical_formula_structural   ZrGeS4
_chemical_formula_sum   'Zr1 Ge1 S4'
_cell_volume   319.54998725
_cell_formula_units_Z   1
loop_
 _symmetry_equiv_pos_site_id
 _symmetry_equiv_pos_as_xyz
  1  'x, y, z'
loop_
 _atom_site_type_symbol
 _atom_site_label
 _atom_site_symmetry_multiplicity
 _atom_site_fract_x
 _atom_site_fract_y
 _atom_site_fract_z
 _atom_site_occupancy
  Zr  Zr0  1  0.00000000  0.00000000  0.38735157  1
  Ge  Ge1  1  0.00000000  0.00000000  0.60691534  1
  S  S2  1  0.33333300  0.33333300  0.56081003  1
  S  S3  1  0.66666700  0.66666700  0.65308475  1
  S  S4  1  0.33333300  0.33333300  0.33434662  1
  S  S5  1  0.33333300  0.33333300  0.44023768  1
