# generated using pymatgen
data_Pd3Pt4(S3O4)2
_symmetry_space_group_name_H-M   'P 1'
_cell_length_a   6.22011869
_cell_length_b   6.22011900
_cell_length_c   30.00000000
_cell_angle_alpha   90.00000000
_cell_angle_beta   90.00000000
_cell_angle_gamma   60.00000367
_symmetry_Int_Tables_number   1
_chemical_formula_structural   Pd3Pt4(S3O4)2
_chemical_formula_sum   'Pd3 Pt4 S6 O8'
_cell_volume   1005.19256541
_cell_formula_units_Z   1
loop_
 _symmetry_equiv_pos_site_id
 _symmetry_equiv_pos_as_xyz
  1  'x, y, z'
loop_
 _atom_site_type_symbol
 _atom_site_label
 _atom_site_symmetry_multiplicity
 _atom_site_fract_x
 _atom_site_fract_y
 _atom_site_fract_z
 _atom_site_occupancy
  Pd  Pd0  1  0.00000000  0.00000000  0.58585863  1
  Pd  Pd1  1  0.33333300  0.33333300  0.58691542  1
  Pd  Pd2  1  0.66666700  0.66666700  0.58583878  1
  Pt  Pt3  1  0.49975889  0.50011940  0.42014049  1
  Pt  Pt4  1  0.50011940  0.00012171  0.42014049  1
  Pt  Pt5  1  0.00000000  0.00000000  0.42009284  1
  Pt  Pt6  1  0.00012171  0.49975889  0.42014049  1
  S  S7  1  0.66906604  0.33341330  0.62674519  1
  S  S8  1  0.99752066  0.66906604  0.62674519  1
  S  S9  1  0.66317941  0.00358925  0.54601493  1
  S  S10  1  0.33323134  0.66317941  0.54601493  1
  S  S11  1  0.00358925  0.33323134  0.54601493  1
  S  S12  1  0.33341330  0.99752066  0.62674519  1
  O  O13  1  0.83432682  0.83237763  0.45236673  1
  O  O14  1  0.16709687  0.16619773  0.38771228  1
  O  O15  1  0.16619773  0.66670640  0.38771228  1
  O  O16  1  0.66670640  0.16709687  0.38771228  1
  O  O17  1  0.66666700  0.66666700  0.38774430  1
  O  O18  1  0.33329455  0.83432682  0.45236673  1
  O  O19  1  0.33333300  0.33333300  0.45253614  1
  O  O20  1  0.83237763  0.33329455  0.45236673  1
