# generated using pymatgen
data_Hf3Te6(PdO2)4
_symmetry_space_group_name_H-M   'P 1'
_cell_length_a   6.47956000
_cell_length_b   6.47955951
_cell_length_c   30.00000000
_cell_angle_alpha   90.00000000
_cell_angle_beta   90.00000000
_cell_angle_gamma   59.99999750
_symmetry_Int_Tables_number   1
_chemical_formula_structural   Hf3Te6(PdO2)4
_chemical_formula_sum   'Hf3 Te6 Pd4 O8'
_cell_volume   1090.79433589
_cell_formula_units_Z   1
loop_
 _symmetry_equiv_pos_site_id
 _symmetry_equiv_pos_as_xyz
  1  'x, y, z'
loop_
 _atom_site_type_symbol
 _atom_site_label
 _atom_site_symmetry_multiplicity
 _atom_site_fract_x
 _atom_site_fract_y
 _atom_site_fract_z
 _atom_site_occupancy
  Hf  Hf0  1  0.66666700  0.66666700  0.39312082  1
  Hf  Hf1  1  0.33333300  0.33333300  0.39684717  1
  Hf  Hf2  1  0.00000000  0.00000000  0.39696723  1
  Te  Te3  1  0.66714792  0.99648439  0.45828508  1
  Te  Te4  1  0.99648439  0.33636769  0.45828508  1
  Te  Te5  1  0.66671165  0.00370513  0.33210954  1
  Te  Te6  1  0.32958322  0.66671165  0.33210954  1
  Te  Te7  1  0.00370513  0.32958322  0.33210954  1
  Te  Te8  1  0.33636769  0.66714792  0.45828508  1
  Pd  Pd9  1  0.00000000  0.00000000  0.57947419  1
  Pd  Pd10  1  0.50092181  0.49939013  0.57971075  1
  Pd  Pd11  1  0.49939013  0.99968806  0.57971075  1
  Pd  Pd12  1  0.99968806  0.50092181  0.57971075  1
  O  O13  1  0.33185114  0.83558518  0.60943388  1
  O  O14  1  0.83256268  0.33185114  0.60943388  1
  O  O15  1  0.66666700  0.66666700  0.54979762  1
  O  O16  1  0.66669608  0.16745771  0.54928830  1
  O  O17  1  0.16584721  0.66669608  0.54928830  1
  O  O18  1  0.16745771  0.16584721  0.54928830  1
  O  O19  1  0.33333300  0.33333300  0.60911531  1
  O  O20  1  0.83558518  0.83256268  0.60943388  1
