# generated using pymatgen
data_ZrSnSe4
_symmetry_space_group_name_H-M   'P 1'
_cell_length_a   6.55167800
_cell_length_b   6.55167836
_cell_length_c   30.00000000
_cell_angle_alpha   90.00000000
_cell_angle_beta   90.00000000
_cell_angle_gamma   60.00000181
_symmetry_Int_Tables_number   1
_chemical_formula_structural   ZrSnSe4
_chemical_formula_sum   'Zr3 Sn3 Se12'
_cell_volume   1115.21090513
_cell_formula_units_Z   3
loop_
 _symmetry_equiv_pos_site_id
 _symmetry_equiv_pos_as_xyz
  1  'x, y, z'
loop_
 _atom_site_type_symbol
 _atom_site_label
 _atom_site_symmetry_multiplicity
 _atom_site_fract_x
 _atom_site_fract_y
 _atom_site_fract_z
 _atom_site_occupancy
  Zr  Zr0  1  0.66666700  0.66666700  0.39347506  1
  Zr  Zr1  1  0.33333300  0.33333300  0.39347506  1
  Zr  Zr2  1  0.00000000  0.00000000  0.39347506  1
  Sn  Sn3  1  0.00000000  0.00000000  0.60351787  1
  Sn  Sn4  1  0.33333300  0.33333300  0.60351787  1
  Sn  Sn5  1  0.66666700  0.66666700  0.60351787  1
  Se  Se6  1  0.33333300  0.00000000  0.44886099  1
  Se  Se7  1  0.00000000  0.66666700  0.33784577  1
  Se  Se8  1  0.66666700  0.33333300  0.33784577  1
  Se  Se9  1  0.33333300  0.00000000  0.33784577  1
  Se  Se10  1  0.00000000  0.66666700  0.65749291  1
  Se  Se11  1  0.66666700  0.33333300  0.65749291  1
  Se  Se12  1  0.33333300  0.00000000  0.65749291  1
  Se  Se13  1  0.66666700  0.00000000  0.54963640  1
  Se  Se14  1  0.33333300  0.66666700  0.54963640  1
  Se  Se15  1  0.00000000  0.33333300  0.54963640  1
  Se  Se16  1  0.66666700  0.33333300  0.44886099  1
  Se  Se17  1  0.00000000  0.66666700  0.44886099  1
