# generated using pymatgen
data_Pt7(Se3O4)2
_symmetry_space_group_name_H-M   'P 1'
_cell_length_a   6.38676000
_cell_length_b   6.38675965
_cell_length_c   30.00000000
_cell_angle_alpha   90.00000000
_cell_angle_beta   90.00000000
_cell_angle_gamma   59.99999817
_symmetry_Int_Tables_number   1
_chemical_formula_structural   Pt7(Se3O4)2
_chemical_formula_sum   'Pt7 Se6 O8'
_cell_volume   1059.77348067
_cell_formula_units_Z   1
loop_
 _symmetry_equiv_pos_site_id
 _symmetry_equiv_pos_as_xyz
  1  'x, y, z'
loop_
 _atom_site_type_symbol
 _atom_site_label
 _atom_site_symmetry_multiplicity
 _atom_site_fract_x
 _atom_site_fract_y
 _atom_site_fract_z
 _atom_site_occupancy
  Pt  Pt0  1  0.00000000  0.00000000  0.57994948  1
  Pt  Pt1  1  0.99984691  0.50013295  0.57994607  1
  Pt  Pt2  1  0.50002014  0.99984691  0.57994607  1
  Pt  Pt3  1  0.50013295  0.50002014  0.57994607  1
  Pt  Pt4  1  0.66666700  0.66666700  0.41054539  1
  Pt  Pt5  1  0.33333300  0.33333300  0.41206561  1
  Pt  Pt6  1  0.00000000  0.00000000  0.41190794  1
  Se  Se7  1  0.33736040  0.99547319  0.45593693  1
  Se  Se8  1  0.66629787  0.00330973  0.36667519  1
  Se  Se9  1  0.33039240  0.66629787  0.36667519  1
  Se  Se10  1  0.00330973  0.33039240  0.36667519  1
  Se  Se11  1  0.99547319  0.66716641  0.45593693  1
  Se  Se12  1  0.66716641  0.33736040  0.45593693  1
  O  O13  1  0.33333300  0.33333300  0.61060610  1
  O  O14  1  0.33313510  0.83284315  0.61068488  1
  O  O15  1  0.66666700  0.66666700  0.54923170  1
  O  O16  1  0.66670803  0.16552820  0.54933418  1
  O  O17  1  0.16776477  0.66670803  0.54933418  1
  O  O18  1  0.16552820  0.16776477  0.54933418  1
  O  O19  1  0.83402075  0.33313510  0.61068488  1
  O  O20  1  0.83284315  0.83402075  0.61068488  1
