# generated using pymatgen
data_Hf3Te6(WSe2)4
_symmetry_space_group_name_H-M   'P 1'
_cell_length_a   6.70477700
_cell_length_b   6.70477657
_cell_length_c   30.00000000
_cell_angle_alpha   90.00000000
_cell_angle_beta   90.00000000
_cell_angle_gamma   60.00000281
_symmetry_Int_Tables_number   1
_chemical_formula_structural   Hf3Te6(WSe2)4
_chemical_formula_sum   'Hf3 Te6 W4 Se8'
_cell_volume   1167.94003752
_cell_formula_units_Z   1
loop_
 _symmetry_equiv_pos_site_id
 _symmetry_equiv_pos_as_xyz
  1  'x, y, z'
loop_
 _atom_site_type_symbol
 _atom_site_label
 _atom_site_symmetry_multiplicity
 _atom_site_fract_x
 _atom_site_fract_y
 _atom_site_fract_z
 _atom_site_occupancy
  Hf  Hf0  1  0.00000000  0.00000000  0.61421767  1
  Hf  Hf1  1  0.33333300  0.33333300  0.61545401  1
  Hf  Hf2  1  0.66666700  0.66666700  0.62526009  1
  Te  Te3  1  0.98836165  0.34650312  0.55693956  1
  Te  Te4  1  0.34650312  0.66513523  0.55693956  1
  Te  Te5  1  0.66513523  0.98836165  0.55693956  1
  Te  Te6  1  0.01151753  0.32048903  0.68000765  1
  Te  Te7  1  0.32048903  0.66799345  0.68000765  1
  Te  Te8  1  0.66799345  0.01151753  0.68000765  1
  W  W9  1  0.49890077  0.50123354  0.38687260  1
  W  W10  1  0.50123354  0.99986569  0.38687260  1
  W  W11  1  0.99986569  0.49890077  0.38687260  1
  W  W12  1  0.00000000  0.00000000  0.38691382  1
  Se  Se13  1  0.16769127  0.16557343  0.33160178  1
  Se  Se14  1  0.16557343  0.66673630  0.33160178  1
  Se  Se15  1  0.66673630  0.16769127  0.33160178  1
  Se  Se16  1  0.66666700  0.66666700  0.33159059  1
  Se  Se17  1  0.16876127  0.16482649  0.44203817  1
  Se  Se18  1  0.16482649  0.66641324  0.44203817  1
  Se  Se19  1  0.66641324  0.16876127  0.44203817  1
  Se  Se20  1  0.66666700  0.66666700  0.44221555  1
