# generated using pymatgen
data_MoPd(SeO)2
_symmetry_space_group_name_H-M   'P 1'
_cell_length_a   3.20678674
_cell_length_b   3.20678700
_cell_length_c   30.00000000
_cell_angle_alpha   90.00000000
_cell_angle_beta   90.00000000
_cell_angle_gamma   60.00000768
_symmetry_Int_Tables_number   1
_chemical_formula_structural   MoPd(SeO)2
_chemical_formula_sum   'Mo1 Pd1 Se2 O2'
_cell_volume   267.17272134
_cell_formula_units_Z   1
loop_
 _symmetry_equiv_pos_site_id
 _symmetry_equiv_pos_as_xyz
  1  'x, y, z'
loop_
 _atom_site_type_symbol
 _atom_site_label
 _atom_site_symmetry_multiplicity
 _atom_site_fract_x
 _atom_site_fract_y
 _atom_site_fract_z
 _atom_site_occupancy
  Mo  Mo0  1  0.00000000  0.00000000  0.39270638  1
  Pd  Pd1  1  0.00000000  0.00000000  0.58432285  1
  Se  Se2  1  0.33333300  0.33333300  0.33576359  1
  Se  Se3  1  0.33333300  0.33333300  0.44967164  1
  O  O4  1  0.33333300  0.33333300  0.55401016  1
  O  O5  1  0.66666700  0.66666700  0.61452338  1
