# generated using pymatgen
data_Sn7(Se3O4)2
_symmetry_space_group_name_H-M   'P 1'
_cell_length_a   6.56976700
_cell_length_b   6.56976715
_cell_length_c   30.00000000
_cell_angle_alpha   90.00000000
_cell_angle_beta   90.00000000
_cell_angle_gamma   59.99999570
_symmetry_Int_Tables_number   1
_chemical_formula_structural   Sn7(Se3O4)2
_chemical_formula_sum   'Sn7 Se6 O8'
_cell_volume   1121.37743330
_cell_formula_units_Z   1
loop_
 _symmetry_equiv_pos_site_id
 _symmetry_equiv_pos_as_xyz
  1  'x, y, z'
loop_
 _atom_site_type_symbol
 _atom_site_label
 _atom_site_symmetry_multiplicity
 _atom_site_fract_x
 _atom_site_fract_y
 _atom_site_fract_z
 _atom_site_occupancy
  Sn  Sn0  1  0.00000000  0.00000000  0.58631505  1
  Sn  Sn1  1  0.99984168  0.50027072  0.58610218  1
  Sn  Sn2  1  0.49988761  0.99984168  0.58610218  1
  Sn  Sn3  1  0.50027072  0.49988761  0.58610218  1
  Sn  Sn4  1  0.66666700  0.66666700  0.39566061  1
  Sn  Sn5  1  0.33333300  0.33333300  0.39622811  1
  Sn  Sn6  1  0.00000000  0.00000000  0.39619063  1
  Se  Se7  1  0.33535185  0.99801882  0.44977721  1
  Se  Se8  1  0.66672048  0.00133981  0.34214624  1
  Se  Se9  1  0.33193971  0.66672048  0.34214624  1
  Se  Se10  1  0.00133981  0.33193971  0.34214624  1
  Se  Se11  1  0.99801882  0.66662933  0.44977721  1
  Se  Se12  1  0.66662933  0.33535185  0.44977721  1
  O  O13  1  0.33333300  0.33333300  0.61891093  1
  O  O14  1  0.33371263  0.83350282  0.61902000  1
  O  O15  1  0.66666700  0.66666700  0.55304035  1
  O  O16  1  0.66697409  0.16561749  0.55333314  1
  O  O17  1  0.16740942  0.66697409  0.55333314  1
  O  O18  1  0.16561749  0.16740942  0.55333314  1
  O  O19  1  0.83278356  0.33371263  0.61902000  1
  O  O20  1  0.83350282  0.83278356  0.61902000  1
