# generated using pymatgen
data_Mo4Pb3O14
_symmetry_space_group_name_H-M   'P 1'
_cell_length_a   5.75543500
_cell_length_b   5.75543482
_cell_length_c   30.00000000
_cell_angle_alpha   90.00000000
_cell_angle_beta   90.00000000
_cell_angle_gamma   60.00000471
_symmetry_Int_Tables_number   1
_chemical_formula_structural   Mo4Pb3O14
_chemical_formula_sum   'Mo4 Pb3 O14'
_cell_volume   860.61359126
_cell_formula_units_Z   1
loop_
 _symmetry_equiv_pos_site_id
 _symmetry_equiv_pos_as_xyz
  1  'x, y, z'
loop_
 _atom_site_type_symbol
 _atom_site_label
 _atom_site_symmetry_multiplicity
 _atom_site_fract_x
 _atom_site_fract_y
 _atom_site_fract_z
 _atom_site_occupancy
  Mo  Mo0  1  0.99997630  0.49965886  0.41258247  1
  Mo  Mo1  1  0.49965886  0.50036484  0.41258247  1
  Mo  Mo2  1  0.50036484  0.99997630  0.41258247  1
  Mo  Mo3  1  0.00000000  0.00000000  0.41250167  1
  Pb  Pb4  1  0.00000000  0.00000000  0.57817287  1
  Pb  Pb5  1  0.66666700  0.66666700  0.57870601  1
  Pb  Pb6  1  0.33333300  0.33333300  0.57828828  1
  O  O7  1  0.66650852  0.99874974  0.54131874  1
  O  O8  1  0.33226793  0.00088766  0.61544454  1
  O  O9  1  0.66684441  0.33226793  0.61544454  1
  O  O10  1  0.00088766  0.66684441  0.61544454  1
  O  O11  1  0.99874974  0.33474174  0.54131874  1
  O  O12  1  0.66667743  0.16807111  0.45308830  1
  O  O13  1  0.16700984  0.16640136  0.37181611  1
  O  O14  1  0.16640136  0.66658980  0.37181611  1
  O  O15  1  0.66658980  0.16700984  0.37181611  1
  O  O16  1  0.66666700  0.66666700  0.37189778  1
  O  O17  1  0.16807111  0.16525246  0.45308830  1
  O  O18  1  0.16525246  0.66667743  0.45308830  1
  O  O19  1  0.33474174  0.66650852  0.54131874  1
  O  O20  1  0.66666700  0.66666700  0.45330089  1
