# generated using pymatgen
data_Ti3Te6(WS2)4
_symmetry_space_group_name_H-M   'P 1'
_cell_length_a   6.42220600
_cell_length_b   6.42220639
_cell_length_c   30.00000000
_cell_angle_alpha   90.00000000
_cell_angle_beta   90.00000000
_cell_angle_gamma   60.00000203
_symmetry_Int_Tables_number   1
_chemical_formula_structural   Ti3Te6(WS2)4
_chemical_formula_sum   'Ti3 Te6 W4 S8'
_cell_volume   1071.56960393
_cell_formula_units_Z   1
loop_
 _symmetry_equiv_pos_site_id
 _symmetry_equiv_pos_as_xyz
  1  'x, y, z'
loop_
 _atom_site_type_symbol
 _atom_site_label
 _atom_site_symmetry_multiplicity
 _atom_site_fract_x
 _atom_site_fract_y
 _atom_site_fract_z
 _atom_site_occupancy
  Ti  Ti0  1  0.00000000  0.00000000  0.61471347  1
  Ti  Ti1  1  0.33333300  0.33333300  0.61531897  1
  Ti  Ti2  1  0.66666700  0.66666700  0.61816925  1
  Te  Te3  1  0.99607212  0.33792947  0.55688462  1
  Te  Te4  1  0.33792947  0.66599841  0.55688462  1
  Te  Te5  1  0.66599841  0.99607212  0.55688462  1
  Te  Te6  1  0.00276203  0.33005095  0.67584105  1
  Te  Te7  1  0.33005095  0.66718702  0.67584105  1
  Te  Te8  1  0.66718702  0.00276203  0.67584105  1
  W  W9  1  0.49925169  0.50089765  0.39057933  1
  W  W10  1  0.50089765  0.99985065  0.39057933  1
  W  W11  1  0.99985065  0.49925169  0.39057933  1
  W  W12  1  0.00000000  0.00000000  0.39057825  1
  S  S13  1  0.16736859  0.16596808  0.33861207  1
  S  S14  1  0.16596808  0.66666433  0.33861207  1
  S  S15  1  0.66666433  0.16736859  0.33861207  1
  S  S16  1  0.66666700  0.66666700  0.33862465  1
  S  S17  1  0.16828094  0.16517726  0.44238476  1
  S  S18  1  0.16517726  0.66654280  0.44238476  1
  S  S19  1  0.66654280  0.16828094  0.44238476  1
  S  S20  1  0.66666700  0.66666700  0.44263892  1
