# generated using pymatgen
data_Ge4Pb3O14
_symmetry_space_group_name_H-M   'P 1'
_cell_length_a   5.83646600
_cell_length_b   5.83646615
_cell_length_c   30.00000000
_cell_angle_alpha   90.00000000
_cell_angle_beta   90.00000000
_cell_angle_gamma   60.00000086
_symmetry_Int_Tables_number   1
_chemical_formula_structural   Ge4Pb3O14
_chemical_formula_sum   'Ge4 Pb3 O14'
_cell_volume   885.01742454
_cell_formula_units_Z   1
loop_
 _symmetry_equiv_pos_site_id
 _symmetry_equiv_pos_as_xyz
  1  'x, y, z'
loop_
 _atom_site_type_symbol
 _atom_site_label
 _atom_site_symmetry_multiplicity
 _atom_site_fract_x
 _atom_site_fract_y
 _atom_site_fract_z
 _atom_site_occupancy
  Ge  Ge0  1  0.00000000  0.00000000  0.58201728  1
  Ge  Ge1  1  0.00000408  0.50018861  0.58178067  1
  Ge  Ge2  1  0.49980730  0.00000408  0.58178067  1
  Ge  Ge3  1  0.50018861  0.49980730  0.58178067  1
  Pb  Pb4  1  0.66666700  0.66666700  0.41825589  1
  Pb  Pb5  1  0.33333300  0.33333300  0.41831443  1
  Pb  Pb6  1  0.00000000  0.00000000  0.41819697  1
  O  O7  1  0.33377956  0.99944754  0.45447454  1
  O  O8  1  0.66653593  0.00032719  0.38193780  1
  O  O9  1  0.33313688  0.66653593  0.38193780  1
  O  O10  1  0.00032719  0.33313688  0.38193780  1
  O  O11  1  0.83346775  0.83279107  0.61461122  1
  O  O12  1  0.66677290  0.33377956  0.45447454  1
  O  O13  1  0.33333300  0.33333300  0.61455990  1
  O  O14  1  0.33374018  0.83346775  0.61461122  1
  O  O15  1  0.66666700  0.66666700  0.54895050  1
  O  O16  1  0.66687807  0.16553209  0.54919546  1
  O  O17  1  0.16759084  0.66687807  0.54919546  1
  O  O18  1  0.16553209  0.16759084  0.54919546  1
  O  O19  1  0.83279107  0.33374018  0.61461122  1
  O  O20  1  0.99944754  0.66677290  0.45447454  1
