# generated using pymatgen
data_Zr7Te14(WS2)12
_symmetry_space_group_name_H-M   'P 1'
_cell_length_a   10.70396782
_cell_length_b   10.70396782
_cell_length_c   30.00000000
_cell_angle_alpha   90.00000000
_cell_angle_beta   90.00000000
_cell_angle_gamma   60.00000112
_symmetry_Int_Tables_number   1
_chemical_formula_structural   Zr7Te14(WS2)12
_chemical_formula_sum   'Zr7 Te14 W12 S24'
_cell_volume   2976.74395785
_cell_formula_units_Z   1
loop_
 _symmetry_equiv_pos_site_id
 _symmetry_equiv_pos_as_xyz
  1  'x, y, z'
loop_
 _atom_site_type_symbol
 _atom_site_label
 _atom_site_symmetry_multiplicity
 _atom_site_fract_x
 _atom_site_fract_y
 _atom_site_fract_z
 _atom_site_occupancy
  Zr  Zr0  1  0.28544315  0.14336565  0.38207405  1
  Zr  Zr1  1  0.14336565  0.57119120  0.38207405  1
  Zr  Zr2  1  0.57119120  0.28544315  0.38207405  1
  Zr  Zr3  1  0.42823000  0.71468935  0.37999776  1
  Zr  Zr4  1  0.85708065  0.42823000  0.37999776  1
  Zr  Zr5  1  0.71468935  0.85708065  0.37999776  1
  Zr  Zr6  1  0.00000000  0.00000000  0.38346623  1
  Te  Te7  1  0.76152776  0.04684053  0.44239862  1
  Te  Te8  1  0.04824154  0.18885045  0.32060729  1
  Te  Te9  1  0.33333300  0.33333300  0.32072562  1
  Te  Te10  1  0.18885045  0.76290801  0.32060729  1
  Te  Te11  1  0.47577190  0.90532704  0.31959991  1
  Te  Te12  1  0.90532704  0.61890106  0.31959991  1
  Te  Te13  1  0.76290801  0.04824154  0.32060729  1
  Te  Te14  1  0.04684053  0.19163171  0.44239862  1
  Te  Te15  1  0.33333300  0.33333300  0.44267874  1
  Te  Te16  1  0.19163171  0.76152776  0.44239862  1
  Te  Te17  1  0.61734621  0.47663173  0.44114840  1
  Te  Te18  1  0.47663173  0.90602206  0.44114840  1
  Te  Te19  1  0.61890106  0.47577190  0.31959991  1
  Te  Te20  1  0.90602206  0.61734621  0.44114840  1
  W  W21  1  0.00000000  0.00000000  0.60932933  1
  W  W22  1  0.66670082  0.16653174  0.60945168  1
  W  W23  1  0.99999322  0.50032730  0.60994089  1
  W  W24  1  0.16653174  0.16676844  0.60945168  1
  W  W25  1  0.16676844  0.66670082  0.60945168  1
  W  W26  1  0.33333300  0.33333300  0.60924403  1
  W  W27  1  0.49967948  0.99999322  0.60994089  1
  W  W28  1  0.33328974  0.83315281  0.60996367  1
  W  W29  1  0.50032730  0.49967948  0.60994089  1
  W  W30  1  0.66666700  0.66666700  0.61080129  1
  W  W31  1  0.83355644  0.33328974  0.60996367  1
  W  W32  1  0.83315281  0.83355644  0.60996367  1
  S  S33  1  0.33359890  0.16587683  0.55598564  1
  S  S34  1  0.16587683  0.50052427  0.55598564  1
  S  S35  1  0.99930217  0.33454470  0.55642875  1
  S  S36  1  0.33454470  0.66615313  0.55642875  1
  S  S37  1  0.16745515  0.99929298  0.55607909  1
  S  S38  1  0.83195314  0.66713364  0.55715800  1
  S  S39  1  0.50052427  0.33359890  0.55598564  1
  S  S40  1  0.50091322  0.83195314  0.55715800  1
  S  S41  1  0.99929298  0.83325187  0.55607909  1
  S  S42  1  0.16593417  0.00054806  0.66299274  1
  S  S43  1  0.16753108  0.49984253  0.66295107  1
  S  S44  1  0.33262639  0.16753108  0.66295107  1
  S  S45  1  0.33297187  0.66637559  0.66324102  1
  S  S46  1  0.83325187  0.16745515  0.55607909  1
  S  S47  1  0.66615313  0.99930217  0.55642875  1
  S  S48  1  0.66637559  0.00065255  0.66324102  1
  S  S49  1  0.66683815  0.49893033  0.66377367  1
  S  S50  1  0.83351777  0.16593417  0.66299274  1
  S  S51  1  0.83423152  0.66683815  0.66377367  1
  S  S52  1  0.00065255  0.33297187  0.66324102  1
  S  S53  1  0.00054806  0.83351777  0.66299274  1
  S  S54  1  0.66713364  0.50091322  0.55715800  1
  S  S55  1  0.49893033  0.83423152  0.66377367  1
  S  S56  1  0.49984253  0.33262639  0.66295107  1
