# generated using pymatgen
data_Zr4W7(Se4O7)2
_symmetry_space_group_name_H-M   'P 1'
_cell_length_a   7.44850008
_cell_length_b   7.44850027
_cell_length_c   30.00000000
_cell_angle_alpha   90.00000000
_cell_angle_beta   90.00000000
_cell_angle_gamma   59.99999988
_symmetry_Int_Tables_number   1
_chemical_formula_structural   Zr4W7(Se4O7)2
_chemical_formula_sum   'Zr4 W7 Se8 O14'
_cell_volume   1441.41670346
_cell_formula_units_Z   1
loop_
 _symmetry_equiv_pos_site_id
 _symmetry_equiv_pos_as_xyz
  1  'x, y, z'
loop_
 _atom_site_type_symbol
 _atom_site_label
 _atom_site_symmetry_multiplicity
 _atom_site_fract_x
 _atom_site_fract_y
 _atom_site_fract_z
 _atom_site_occupancy
  Zr  Zr0  1  0.00000000  0.00000000  0.40177001  1
  Zr  Zr1  1  0.50010054  0.99975005  0.39375542  1
  Zr  Zr2  1  0.50014941  0.50010054  0.39375542  1
  Zr  Zr3  1  0.99975005  0.50014941  0.39375542  1
  W  W4  1  0.85725405  0.42862345  0.59383897  1
  W  W5  1  0.00000000  0.00000000  0.59365601  1
  W  W6  1  0.57152385  0.28561393  0.59369216  1
  W  W7  1  0.42862345  0.71412250  0.59383897  1
  W  W8  1  0.28561393  0.14286222  0.59369216  1
  W  W9  1  0.14286222  0.57152385  0.59369216  1
  W  W10  1  0.71412250  0.85725405  0.59383897  1
  Se  Se11  1  0.16951728  0.65982417  0.45208975  1
  Se  Se12  1  0.66666700  0.66666700  0.33778602  1
  Se  Se13  1  0.67316936  0.16317520  0.34041193  1
  Se  Se14  1  0.16365643  0.67316936  0.34041193  1
  Se  Se15  1  0.16317520  0.16365643  0.34041193  1
  Se  Se16  1  0.17065955  0.16951728  0.45208975  1
  Se  Se17  1  0.66666700  0.66666700  0.44945121  1
  Se  Se18  1  0.65982417  0.17065955  0.45208975  1
  O  O19  1  0.80966910  0.23787008  0.63524813  1
  O  O20  1  0.95246082  0.80966910  0.63524813  1
  O  O21  1  0.09545417  0.38099853  0.63526698  1
  O  O22  1  0.38099853  0.52354731  0.63526698  1
  O  O23  1  0.23787008  0.95246082  0.63524813  1
  O  O24  1  0.09496233  0.38146129  0.55221799  1
  O  O25  1  0.95175342  0.80976373  0.55220158  1
  O  O26  1  0.80976373  0.23848285  0.55220158  1
  O  O27  1  0.66666700  0.66666700  0.55251416  1
  O  O28  1  0.52357638  0.09496233  0.55221799  1
  O  O29  1  0.38146129  0.52357638  0.55221799  1
  O  O30  1  0.23848285  0.95175342  0.55220158  1
  O  O31  1  0.66666700  0.66666700  0.63541686  1
  O  O32  1  0.52354731  0.09545417  0.63526698  1
