# generated using pymatgen
data_Te14Mo7(WO2)12
_symmetry_space_group_name_H-M   'P 1'
_cell_length_a   9.59837921
_cell_length_b   9.59837921
_cell_length_c   30.00000000
_cell_angle_alpha   90.00000000
_cell_angle_beta   90.00000000
_cell_angle_gamma   60.00000546
_symmetry_Int_Tables_number   1
_chemical_formula_structural   Te14Mo7(WO2)12
_chemical_formula_sum   'Te14 Mo7 W12 O24'
_cell_volume   2393.57873542
_cell_formula_units_Z   1
loop_
 _symmetry_equiv_pos_site_id
 _symmetry_equiv_pos_as_xyz
  1  'x, y, z'
loop_
 _atom_site_type_symbol
 _atom_site_label
 _atom_site_symmetry_multiplicity
 _atom_site_fract_x
 _atom_site_fract_y
 _atom_site_fract_z
 _atom_site_occupancy
  Te  Te0  1  0.95169249  0.80917420  0.55248507  1
  Te  Te1  1  0.09540302  0.38097839  0.67040754  1
  Te  Te2  1  0.95210206  0.80965629  0.67025051  1
  Te  Te3  1  0.80965629  0.23824165  0.67025051  1
  Te  Te4  1  0.66666700  0.66666700  0.67041330  1
  Te  Te5  1  0.52361858  0.09540302  0.67040754  1
  Te  Te6  1  0.38097839  0.52361858  0.67040754  1
  Te  Te7  1  0.23913332  0.95169249  0.55248507  1
  Te  Te8  1  0.38105202  0.52333445  0.55222447  1
  Te  Te9  1  0.52333445  0.09561353  0.55222447  1
  Te  Te10  1  0.66666700  0.66666700  0.55222462  1
  Te  Te11  1  0.80917420  0.23913332  0.55248507  1
  Te  Te12  1  0.23824165  0.95210206  0.67025051  1
  Te  Te13  1  0.09561353  0.38105202  0.55222447  1
  Mo  Mo14  1  0.00000000  0.00000000  0.61116675  1
  Mo  Mo15  1  0.85741622  0.42914158  0.61128214  1
  Mo  Mo16  1  0.71344219  0.85741622  0.61128214  1
  Mo  Mo17  1  0.57113573  0.28575427  0.61128727  1
  Mo  Mo18  1  0.42914158  0.71344219  0.61128214  1
  Mo  Mo19  1  0.28575427  0.14311000  0.61128727  1
  Mo  Mo20  1  0.14311000  0.57113573  0.61128727  1
  W  W21  1  0.83348083  0.83321863  0.40446782  1
  W  W22  1  0.83321863  0.33329954  0.40446782  1
  W  W23  1  0.66666700  0.66666700  0.40494530  1
  W  W24  1  0.66669047  0.16652505  0.40448166  1
  W  W25  1  0.33329954  0.83348083  0.40446782  1
  W  W26  1  0.49999579  0.50000369  0.40484642  1
  W  W27  1  0.33333300  0.33333300  0.40498523  1
  W  W28  1  0.50000369  0.00000052  0.40484642  1
  W  W29  1  0.16678548  0.66669047  0.40448166  1
  W  W30  1  0.16652505  0.16678548  0.40448166  1
  W  W31  1  0.00000052  0.49999579  0.40484642  1
  W  W32  1  0.00000000  0.00000000  0.40383668  1
  O  O33  1  0.16653406  0.50069237  0.44687317  1
  O  O34  1  0.33277357  0.16653406  0.44687317  1
  O  O35  1  0.33270699  0.66762119  0.44662638  1
  O  O36  1  0.50069237  0.33277357  0.44687317  1
  O  O37  1  0.49933256  0.83369317  0.44688610  1
  O  O38  1  0.16552709  0.00029141  0.44612462  1
  O  O39  1  0.66697427  0.49933256  0.44688610  1
  O  O40  1  0.83418150  0.16552709  0.44612462  1
  O  O41  1  0.83369317  0.66697427  0.44688610  1
  O  O42  1  0.66762119  0.99967182  0.44662638  1
  O  O43  1  0.00010885  0.83250067  0.36216835  1
  O  O44  1  0.83250067  0.16739048  0.36216835  1
  O  O45  1  0.83319110  0.66624253  0.36279138  1
  O  O46  1  0.66624253  0.50056638  0.36279138  1
  O  O47  1  0.50056638  0.83319110  0.36279138  1
  O  O48  1  0.66611847  0.99990124  0.36259888  1
  O  O49  1  0.49943184  0.33365771  0.36281795  1
  O  O50  1  0.33398029  0.66611847  0.36259888  1
  O  O51  1  0.33365771  0.16691045  0.36281795  1
  O  O52  1  0.16691045  0.49943184  0.36281795  1
  O  O53  1  0.16739048  0.00010885  0.36216835  1
  O  O54  1  0.99967182  0.33270699  0.44662638  1
  O  O55  1  0.99990124  0.33398029  0.36259888  1
  O  O56  1  0.00029141  0.83418150  0.44612462  1
