# generated using pymatgen
data_GeMo(SO)2
_symmetry_space_group_name_H-M   'P 1'
_cell_length_a   3.04206562
_cell_length_b   3.04206600
_cell_length_c   30.00000000
_cell_angle_alpha   90.00000000
_cell_angle_beta   90.00000000
_cell_angle_gamma   59.99999589
_symmetry_Int_Tables_number   1
_chemical_formula_structural   GeMo(SO)2
_chemical_formula_sum   'Ge1 Mo1 S2 O2'
_cell_volume   240.43023388
_cell_formula_units_Z   1
loop_
 _symmetry_equiv_pos_site_id
 _symmetry_equiv_pos_as_xyz
  1  'x, y, z'
loop_
 _atom_site_type_symbol
 _atom_site_label
 _atom_site_symmetry_multiplicity
 _atom_site_fract_x
 _atom_site_fract_y
 _atom_site_fract_z
 _atom_site_occupancy
  Ge  Ge0  1  0.00000000  0.00000000  0.58825026  1
  Mo  Mo1  1  0.00000000  0.00000000  0.39235767  1
  S  S2  1  0.33333300  0.33333300  0.33855647  1
  S  S3  1  0.33333300  0.33333300  0.44608649  1
  O  O4  1  0.33333300  0.33333300  0.55689440  1
  O  O5  1  0.66666700  0.66666700  0.61947871  1
