# generated using pymatgen
data_Sn3(Mo2O7)2
_symmetry_space_group_name_H-M   'P 1'
_cell_length_a   5.61102732
_cell_length_b   5.61102700
_cell_length_c   30.00000000
_cell_angle_alpha   90.00000000
_cell_angle_beta   90.00000000
_cell_angle_gamma   59.99999597
_symmetry_Int_Tables_number   1
_chemical_formula_structural   Sn3(Mo2O7)2
_chemical_formula_sum   'Sn3 Mo4 O14'
_cell_volume   817.96855839
_cell_formula_units_Z   1
loop_
 _symmetry_equiv_pos_site_id
 _symmetry_equiv_pos_as_xyz
  1  'x, y, z'
loop_
 _atom_site_type_symbol
 _atom_site_label
 _atom_site_symmetry_multiplicity
 _atom_site_fract_x
 _atom_site_fract_y
 _atom_site_fract_z
 _atom_site_occupancy
  Sn  Sn0  1  0.00000000  0.00000000  0.57705640  1
  Sn  Sn1  1  0.33333300  0.33333300  0.57703263  1
  Sn  Sn2  1  0.66666700  0.66666700  0.57700717  1
  Mo  Mo3  1  0.50029826  0.49970691  0.41186813  1
  Mo  Mo4  1  0.49970691  0.99999484  0.41186813  1
  Mo  Mo5  1  0.00000000  0.00000000  0.41180186  1
  Mo  Mo6  1  0.99999484  0.50029826  0.41186813  1
  O  O7  1  0.66664653  0.00023100  0.61058498  1
  O  O8  1  0.00023100  0.33312246  0.61058498  1
  O  O9  1  0.99948620  0.66669573  0.54361291  1
  O  O10  1  0.66666891  0.16561154  0.45313110  1
  O  O11  1  0.66669573  0.33381807  0.54361291  1
  O  O12  1  0.33381807  0.99948620  0.54361291  1
  O  O13  1  0.16643759  0.16696687  0.37045017  1
  O  O14  1  0.16696687  0.66659654  0.37045017  1
  O  O15  1  0.66659654  0.16643759  0.37045017  1
  O  O16  1  0.66666700  0.66666700  0.37051267  1
  O  O17  1  0.16561154  0.16772055  0.45313110  1
  O  O18  1  0.16772055  0.66666891  0.45313110  1
  O  O19  1  0.33312246  0.66664653  0.61058498  1
  O  O20  1  0.66666700  0.66666700  0.45331238  1
