# generated using pymatgen
data_Te6Pd3(WO2)7
_symmetry_space_group_name_H-M   'P 1'
_cell_length_a   7.22599930
_cell_length_b   7.22599863
_cell_length_c   30.00000000
_cell_angle_alpha   90.00000000
_cell_angle_beta   90.00000000
_cell_angle_gamma   59.99999817
_symmetry_Int_Tables_number   1
_chemical_formula_structural   Te6Pd3(WO2)7
_chemical_formula_sum   'Te6 Pd3 W7 O14'
_cell_volume   1356.58705360
_cell_formula_units_Z   1
loop_
 _symmetry_equiv_pos_site_id
 _symmetry_equiv_pos_as_xyz
  1  'x, y, z'
loop_
 _atom_site_type_symbol
 _atom_site_label
 _atom_site_symmetry_multiplicity
 _atom_site_fract_x
 _atom_site_fract_y
 _atom_site_fract_z
 _atom_site_occupancy
  Te  Te0  1  0.33536556  0.99929035  0.54977184  1
  Te  Te1  1  0.66534409  0.33536556  0.54977184  1
  Te  Te2  1  0.99929035  0.66534409  0.54977184  1
  Te  Te3  1  0.33217796  0.66742277  0.63584402  1
  Te  Te4  1  0.66742277  0.00039926  0.63584402  1
  Te  Te5  1  0.00039926  0.33217796  0.63584402  1
  Pd  Pd6  1  0.00000000  0.00000000  0.59205802  1
  Pd  Pd7  1  0.33333300  0.33333300  0.59261011  1
  Pd  Pd8  1  0.66666700  0.66666700  0.59287271  1
  W  W9  1  0.85714779  0.71426329  0.40538069  1
  W  W10  1  0.42858891  0.85714779  0.40538069  1
  W  W11  1  0.57141644  0.14277019  0.40540946  1
  W  W12  1  0.71426329  0.42858891  0.40538069  1
  W  W13  1  0.14277019  0.28581337  0.40540946  1
  W  W14  1  0.00000000  0.00000000  0.40500111  1
  W  W15  1  0.28581337  0.57141644  0.40540946  1
  O  O16  1  0.61918794  0.90472519  0.44806082  1
  O  O17  1  0.76274086  0.18961845  0.44774667  1
  O  O18  1  0.47608686  0.61918794  0.44806082  1
  O  O19  1  0.33333300  0.33333300  0.44808590  1
  O  O20  1  0.18961845  0.04764069  0.44774667  1
  O  O21  1  0.04788109  0.76124201  0.36275554  1
  O  O22  1  0.90470889  0.47626603  0.36293202  1
  O  O23  1  0.76124201  0.19087690  0.36275554  1
  O  O24  1  0.47626603  0.61902508  0.36293202  1
  O  O25  1  0.33333300  0.33333300  0.36298493  1
  O  O26  1  0.19087690  0.04788109  0.36275554  1
  O  O27  1  0.90472519  0.47608686  0.44806082  1
  O  O28  1  0.61902508  0.90470889  0.36293202  1
  O  O29  1  0.04764069  0.76274086  0.44774667  1
