# generated using pymatgen
data_Ti4W3(Se3O4)2
_symmetry_space_group_name_H-M   'P 1'
_cell_length_a   5.86033836
_cell_length_b   5.86033800
_cell_length_c   30.00000000
_cell_angle_alpha   90.00000000
_cell_angle_beta   90.00000000
_cell_angle_gamma   60.00000204
_symmetry_Int_Tables_number   1
_chemical_formula_structural   Ti4W3(Se3O4)2
_chemical_formula_sum   'Ti4 W3 Se6 O8'
_cell_volume   892.27197415
_cell_formula_units_Z   1
loop_
 _symmetry_equiv_pos_site_id
 _symmetry_equiv_pos_as_xyz
  1  'x, y, z'
loop_
 _atom_site_type_symbol
 _atom_site_label
 _atom_site_symmetry_multiplicity
 _atom_site_fract_x
 _atom_site_fract_y
 _atom_site_fract_z
 _atom_site_occupancy
  Ti  Ti0  1  0.00000000  0.00000000  0.58056425  1
  Ti  Ti1  1  0.99765488  0.50099936  0.58730361  1
  Ti  Ti2  1  0.50134576  0.99765488  0.58730361  1
  Ti  Ti3  1  0.50099936  0.50134576  0.58730361  1
  W  W4  1  0.66666700  0.66666700  0.39247341  1
  W  W5  1  0.33333300  0.33333300  0.39269457  1
  W  W6  1  0.00000000  0.00000000  0.39273443  1
  Se  Se7  1  0.33448263  0.99905828  0.44751635  1
  Se  Se8  1  0.00043037  0.66675182  0.33764607  1
  Se  Se9  1  0.66675182  0.33281781  0.33764607  1
  Se  Se10  1  0.33281781  0.00043037  0.33764607  1
  Se  Se11  1  0.99905828  0.66645909  0.44751635  1
  Se  Se12  1  0.66645909  0.33448263  0.44751635  1
  O  O13  1  0.33333300  0.33333300  0.61988611  1
  O  O14  1  0.32964936  0.83520430  0.61891331  1
  O  O15  1  0.66666700  0.66666700  0.55256085  1
  O  O16  1  0.66292628  0.16786639  0.55154746  1
  O  O17  1  0.16920833  0.66292628  0.55154746  1
  O  O18  1  0.16786639  0.16920833  0.55154746  1
  O  O19  1  0.83514534  0.32964936  0.61891331  1
  O  O20  1  0.83520430  0.83514534  0.61891331  1
