# generated using pymatgen
data_Zr3Te6(MoSe2)4
_symmetry_space_group_name_H-M   'P 1'
_cell_length_a   6.71466500
_cell_length_b   6.71466571
_cell_length_c   30.00000000
_cell_angle_alpha   90.00000000
_cell_angle_beta   90.00000000
_cell_angle_gamma   59.99999858
_symmetry_Int_Tables_number   1
_chemical_formula_structural   Zr3Te6(MoSe2)4
_chemical_formula_sum   'Zr3 Te6 Mo4 Se8'
_cell_volume   1171.38761149
_cell_formula_units_Z   1
loop_
 _symmetry_equiv_pos_site_id
 _symmetry_equiv_pos_as_xyz
  1  'x, y, z'
loop_
 _atom_site_type_symbol
 _atom_site_label
 _atom_site_symmetry_multiplicity
 _atom_site_fract_x
 _atom_site_fract_y
 _atom_site_fract_z
 _atom_site_occupancy
  Zr  Zr0  1  0.66666700  0.66666700  0.37410823  1
  Zr  Zr1  1  0.33333300  0.33333300  0.38515381  1
  Zr  Zr2  1  0.00000000  0.00000000  0.38629952  1
  Te  Te3  1  0.66524820  0.98698258  0.44402784  1
  Te  Te4  1  0.98698258  0.34776921  0.44402784  1
  Te  Te5  1  0.66794676  0.01308519  0.31930326  1
  Te  Te6  1  0.31896804  0.66794676  0.31930326  1
  Te  Te7  1  0.01308519  0.31896804  0.31930326  1
  Te  Te8  1  0.34776921  0.66524820  0.44402784  1
  Mo  Mo9  1  0.00000000  0.00000000  0.61221216  1
  Mo  Mo10  1  0.49877514  0.50136371  0.61231779  1
  Mo  Mo11  1  0.50136371  0.99986115  0.61231779  1
  Mo  Mo12  1  0.99986115  0.49877514  0.61231779  1
  Se  Se13  1  0.16766521  0.16549417  0.66731117  1
  Se  Se14  1  0.66666700  0.66666700  0.66736269  1
  Se  Se15  1  0.66666700  0.66666700  0.55723617  1
  Se  Se16  1  0.66633078  0.16900948  0.55736441  1
  Se  Se17  1  0.16466074  0.66633078  0.55736441  1
  Se  Se18  1  0.16900948  0.16466074  0.55736441  1
  Se  Se19  1  0.16549417  0.66684162  0.66731117  1
  Se  Se20  1  0.66684162  0.16766521  0.66731117  1
