# generated using pymatgen
data_Sn3Mo4(Se4S3)2
_symmetry_space_group_name_H-M   'P 1'
_cell_length_a   6.52054062
_cell_length_b   6.52054100
_cell_length_c   30.00000000
_cell_angle_alpha   90.00000000
_cell_angle_beta   90.00000000
_cell_angle_gamma   60.00000314
_symmetry_Int_Tables_number   1
_chemical_formula_structural   Sn3Mo4(Se4S3)2
_chemical_formula_sum   'Sn3 Mo4 Se8 S6'
_cell_volume   1104.63585246
_cell_formula_units_Z   1
loop_
 _symmetry_equiv_pos_site_id
 _symmetry_equiv_pos_as_xyz
  1  'x, y, z'
loop_
 _atom_site_type_symbol
 _atom_site_label
 _atom_site_symmetry_multiplicity
 _atom_site_fract_x
 _atom_site_fract_y
 _atom_site_fract_z
 _atom_site_occupancy
  Sn  Sn0  1  0.00000000  0.00000000  0.60430283  1
  Sn  Sn1  1  0.33333300  0.33333300  0.60437224  1
  Sn  Sn2  1  0.66666700  0.66666700  0.60506388  1
  Mo  Mo3  1  0.49925021  0.50105173  0.38832952  1
  Mo  Mo4  1  0.50105173  0.99969807  0.38832952  1
  Mo  Mo5  1  0.00000000  0.00000000  0.38824541  1
  Mo  Mo6  1  0.99969807  0.49925021  0.38832952  1
  Se  Se7  1  0.66667900  0.16828873  0.44437587  1
  Se  Se8  1  0.16745447  0.16604833  0.33209502  1
  Se  Se9  1  0.16604833  0.66649820  0.33209502  1
  Se  Se10  1  0.66649820  0.16745447  0.33209502  1
  Se  Se11  1  0.66666700  0.66666700  0.33209921  1
  Se  Se12  1  0.16828873  0.16503327  0.44437587  1
  Se  Se13  1  0.16503327  0.66667900  0.44437587  1
  Se  Se14  1  0.66666700  0.66666700  0.44473852  1
  S  S15  1  0.66692985  0.33156125  0.65297679  1
  S  S16  1  0.00150891  0.66692985  0.65297679  1
  S  S17  1  0.66656496  0.99769473  0.55616843  1
  S  S18  1  0.33574031  0.66656496  0.55616843  1
  S  S19  1  0.99769473  0.33574031  0.55616843  1
  S  S20  1  0.33156125  0.00150891  0.65297679  1
