# generated using pymatgen
data_Te2PdPtSe2
_symmetry_space_group_name_H-M   'P 1'
_cell_length_a   3.87351218
_cell_length_b   3.87351200
_cell_length_c   30.00000000
_cell_angle_alpha   90.00000000
_cell_angle_beta   90.00000000
_cell_angle_gamma   60.00000152
_symmetry_Int_Tables_number   1
_chemical_formula_structural   Te2PdPtSe2
_chemical_formula_sum   'Te2 Pd1 Pt1 Se2'
_cell_volume   389.81785244
_cell_formula_units_Z   1
loop_
 _symmetry_equiv_pos_site_id
 _symmetry_equiv_pos_as_xyz
  1  'x, y, z'
loop_
 _atom_site_type_symbol
 _atom_site_label
 _atom_site_symmetry_multiplicity
 _atom_site_fract_x
 _atom_site_fract_y
 _atom_site_fract_z
 _atom_site_occupancy
  Te  Te0  1  0.33333300  0.33333300  0.36712794  1
  Te  Te1  1  0.66666700  0.66666700  0.46513804  1
  Pd  Pd2  1  0.00000000  0.00000000  0.58062298  1
  Pt  Pt3  1  0.00000000  0.00000000  0.41695805  1
  Se  Se4  1  0.33333300  0.33333300  0.54013820  1
  Se  Se5  1  0.66666700  0.66666700  0.62283478  1
