# generated using pymatgen
data_Mo4Pt3S14
_symmetry_space_group_name_H-M   'P 1'
_cell_length_a   6.27812634
_cell_length_b   6.27812600
_cell_length_c   30.00000000
_cell_angle_alpha   90.00000000
_cell_angle_beta   90.00000000
_cell_angle_gamma   60.00000181
_symmetry_Int_Tables_number   1
_chemical_formula_structural   Mo4Pt3S14
_chemical_formula_sum   'Mo4 Pt3 S14'
_cell_volume   1024.02833370
_cell_formula_units_Z   1
loop_
 _symmetry_equiv_pos_site_id
 _symmetry_equiv_pos_as_xyz
  1  'x, y, z'
loop_
 _atom_site_type_symbol
 _atom_site_label
 _atom_site_symmetry_multiplicity
 _atom_site_fract_x
 _atom_site_fract_y
 _atom_site_fract_z
 _atom_site_occupancy
  Mo  Mo0  1  0.99983648  0.49925159  0.39462957  1
  Mo  Mo1  1  0.49925159  0.50091192  0.39462957  1
  Mo  Mo2  1  0.50091192  0.99983648  0.39462957  1
  Mo  Mo3  1  0.00000000  0.00000000  0.39458626  1
  Pt  Pt4  1  0.00000000  0.00000000  0.59216217  1
  Pt  Pt5  1  0.66666700  0.66666700  0.59319506  1
  Pt  Pt6  1  0.33333300  0.33333300  0.59229199  1
  S  S7  1  0.66636509  0.99715509  0.55295789  1
  S  S8  1  0.33111925  0.00200330  0.63249951  1
  S  S9  1  0.66687745  0.33111925  0.63249951  1
  S  S10  1  0.00200330  0.66687745  0.63249951  1
  S  S11  1  0.99715509  0.33647982  0.55295789  1
  S  S12  1  0.66658842  0.16852190  0.44702491  1
  S  S13  1  0.16744212  0.16598501  0.34204536  1
  S  S14  1  0.16598501  0.66657387  0.34204536  1
  S  S15  1  0.66657387  0.16744212  0.34204536  1
  S  S16  1  0.66666700  0.66666700  0.34207153  1
  S  S17  1  0.16852190  0.16489068  0.44702491  1
  S  S18  1  0.16489068  0.66658842  0.44702491  1
  S  S19  1  0.33647982  0.66636509  0.55295789  1
  S  S20  1  0.66666700  0.66666700  0.44734430  1
