# generated using pymatgen
data_Zr4Te8(MoO2)7
_symmetry_space_group_name_H-M   'P 1'
_cell_length_a   7.64934380
_cell_length_b   7.64934300
_cell_length_c   30.00000000
_cell_angle_alpha   90.00000000
_cell_angle_beta   90.00000000
_cell_angle_gamma   59.99999915
_symmetry_Int_Tables_number   1
_chemical_formula_structural   Zr4Te8(MoO2)7
_chemical_formula_sum   'Zr4 Te8 Mo7 O14'
_cell_volume   1520.19814759
_cell_formula_units_Z   1
loop_
 _symmetry_equiv_pos_site_id
 _symmetry_equiv_pos_as_xyz
  1  'x, y, z'
loop_
 _atom_site_type_symbol
 _atom_site_label
 _atom_site_symmetry_multiplicity
 _atom_site_fract_x
 _atom_site_fract_y
 _atom_site_fract_z
 _atom_site_occupancy
  Zr  Zr0  1  0.49950572  0.50065239  0.38740595  1
  Zr  Zr1  1  0.50065239  0.99984189  0.38740595  1
  Zr  Zr2  1  0.99984189  0.49950572  0.38740595  1
  Zr  Zr3  1  0.00000000  0.00000000  0.38933974  1
  Te  Te4  1  0.66666700  0.66666700  0.45054365  1
  Te  Te5  1  0.16675700  0.66427771  0.45072668  1
  Te  Te6  1  0.16896629  0.16675700  0.45072668  1
  Te  Te7  1  0.66666700  0.66666700  0.32401276  1
  Te  Te8  1  0.66836970  0.16618532  0.32446457  1
  Te  Te9  1  0.16544598  0.66836970  0.32446457  1
  Te  Te10  1  0.16618532  0.16544598  0.32446457  1
  Te  Te11  1  0.66427771  0.16896629  0.45072668  1
  Mo  Mo12  1  0.00000000  0.00000000  0.59486176  1
  Mo  Mo13  1  0.28562523  0.14299111  0.59452365  1
  Mo  Mo14  1  0.14299111  0.57138366  0.59452365  1
  Mo  Mo15  1  0.57138366  0.28562523  0.59452365  1
  Mo  Mo16  1  0.42863736  0.71440788  0.59453282  1
  Mo  Mo17  1  0.85695476  0.42863736  0.59453282  1
  Mo  Mo18  1  0.71440788  0.85695476  0.59453282  1
  O  O19  1  0.76285838  0.04678218  0.55407365  1
  O  O20  1  0.04678218  0.19035944  0.55407365  1
  O  O21  1  0.33333300  0.33333300  0.55371876  1
  O  O22  1  0.19035944  0.76285838  0.55407365  1
  O  O23  1  0.61891699  0.47587775  0.55381492  1
  O  O24  1  0.76149664  0.04751598  0.63520223  1
  O  O25  1  0.90481096  0.61893867  0.63503260  1
  O  O26  1  0.47625037  0.90481096  0.63503260  1
  O  O27  1  0.61893867  0.47625037  0.63503260  1
  O  O28  1  0.47587775  0.90520526  0.55381492  1
  O  O29  1  0.33333300  0.33333300  0.63501111  1
  O  O30  1  0.04751598  0.19098738  0.63520223  1
  O  O31  1  0.90520526  0.61891699  0.55381492  1
  O  O32  1  0.19098738  0.76149664  0.63520223  1
