# generated using pymatgen
data_Zr3Te6(WSe2)4
_symmetry_space_group_name_H-M   'P 1'
_cell_length_a   6.71395800
_cell_length_b   6.71395784
_cell_length_c   30.00000000
_cell_angle_alpha   90.00000000
_cell_angle_beta   90.00000000
_cell_angle_gamma   59.99999920
_symmetry_Int_Tables_number   1
_chemical_formula_structural   Zr3Te6(WSe2)4
_chemical_formula_sum   'Zr3 Te6 W4 Se8'
_cell_volume   1171.14080414
_cell_formula_units_Z   1
loop_
 _symmetry_equiv_pos_site_id
 _symmetry_equiv_pos_as_xyz
  1  'x, y, z'
loop_
 _atom_site_type_symbol
 _atom_site_label
 _atom_site_symmetry_multiplicity
 _atom_site_fract_x
 _atom_site_fract_y
 _atom_site_fract_z
 _atom_site_occupancy
  Zr  Zr0  1  0.66666700  0.66666700  0.37384359  1
  Zr  Zr1  1  0.33333300  0.33333300  0.38460008  1
  Zr  Zr2  1  0.00000000  0.00000000  0.38589400  1
  Te  Te3  1  0.66506233  0.98723463  0.44364213  1
  Te  Te4  1  0.98723463  0.34770305  0.44364213  1
  Te  Te5  1  0.66808150  0.01262153  0.31890995  1
  Te  Te6  1  0.31929696  0.66808150  0.31890995  1
  Te  Te7  1  0.01262153  0.31929696  0.31890995  1
  Te  Te8  1  0.34770305  0.66506233  0.44364213  1
  W  W9  1  0.00000000  0.00000000  0.61288748  1
  W  W10  1  0.49885763  0.50123664  0.61293815  1
  W  W11  1  0.50123664  0.99990572  0.61293815  1
  W  W12  1  0.99990572  0.49885763  0.61293815  1
  Se  Se13  1  0.16767293  0.16559944  0.66815922  1
  Se  Se14  1  0.66666700  0.66666700  0.66817520  1
  Se  Se15  1  0.66666700  0.66666700  0.55768121  1
  Se  Se16  1  0.66645282  0.16873345  0.55782403  1
  Se  Se17  1  0.16481473  0.66645282  0.55782403  1
  Se  Se18  1  0.16873345  0.16481473  0.55782403  1
  Se  Se19  1  0.16559944  0.66672863  0.66815922  1
  Se  Se20  1  0.66672863  0.16767293  0.66815922  1
