# generated using pymatgen
data_Cr4Te6Mo3S8
_symmetry_space_group_name_H-M   'P 1'
_cell_length_a   6.11770257
_cell_length_b   6.11770257
_cell_length_c   30.00000000
_cell_angle_alpha   90.00000000
_cell_angle_beta   90.00000000
_cell_angle_gamma   59.99999386
_symmetry_Int_Tables_number   1
_chemical_formula_structural   Cr4Te6Mo3S8
_chemical_formula_sum   'Cr4 Te6 Mo3 S8'
_cell_volume   972.36333955
_cell_formula_units_Z   1
loop_
 _symmetry_equiv_pos_site_id
 _symmetry_equiv_pos_as_xyz
  1  'x, y, z'
loop_
 _atom_site_type_symbol
 _atom_site_label
 _atom_site_symmetry_multiplicity
 _atom_site_fract_x
 _atom_site_fract_y
 _atom_site_fract_z
 _atom_site_occupancy
  Cr  Cr0  1  0.00000000  0.00000000  0.60751325  1
  Cr  Cr1  1  0.99983143  0.50095401  0.60746865  1
  Cr  Cr2  1  0.49921456  0.99983143  0.60746865  1
  Cr  Cr3  1  0.50095401  0.49921456  0.60746865  1
  Te  Te4  1  0.33515186  0.99824256  0.44168469  1
  Te  Te5  1  0.00072319  0.66667021  0.32121488  1
  Te  Te6  1  0.66667021  0.33260661  0.32121488  1
  Te  Te7  1  0.33260661  0.00072319  0.32121488  1
  Te  Te8  1  0.66660557  0.33515186  0.44168469  1
  Te  Te9  1  0.99824256  0.66660557  0.44168469  1
  Mo  Mo10  1  0.00000000  0.00000000  0.38163220  1
  Mo  Mo11  1  0.33333300  0.33333300  0.38161944  1
  Mo  Mo12  1  0.66666700  0.66666700  0.38118293  1
  S  S13  1  0.16603093  0.16736913  0.65620314  1
  S  S14  1  0.66666700  0.66666700  0.65616343  1
  S  S15  1  0.66666700  0.66666700  0.55859340  1
  S  S16  1  0.66653927  0.16496597  0.55893010  1
  S  S17  1  0.16849576  0.66653927  0.55893010  1
  S  S18  1  0.16496597  0.16849576  0.55893010  1
  S  S19  1  0.16736913  0.66660094  0.65620314  1
  S  S20  1  0.66660094  0.16603093  0.65620314  1
