# generated using pymatgen
data_Ti3Ni4(S3O4)2
_symmetry_space_group_name_H-M   'P 1'
_cell_length_a   5.79328253
_cell_length_b   5.79328253
_cell_length_c   30.00000000
_cell_angle_alpha   90.00000000
_cell_angle_beta   90.00000000
_cell_angle_gamma   59.99999390
_symmetry_Int_Tables_number   1
_chemical_formula_structural   Ti3Ni4(S3O4)2
_chemical_formula_sum   'Ti3 Ni4 S6 O8'
_cell_volume   871.96946762
_cell_formula_units_Z   1
loop_
 _symmetry_equiv_pos_site_id
 _symmetry_equiv_pos_as_xyz
  1  'x, y, z'
loop_
 _atom_site_type_symbol
 _atom_site_label
 _atom_site_symmetry_multiplicity
 _atom_site_fract_x
 _atom_site_fract_y
 _atom_site_fract_z
 _atom_site_occupancy
  Ti  Ti0  1  0.66666700  0.66666700  0.40791363  1
  Ti  Ti1  1  0.33333300  0.33333300  0.40840589  1
  Ti  Ti2  1  0.00000000  0.00000000  0.40876695  1
  Ni  Ni3  1  0.00000000  0.00000000  0.57981625  1
  Ni  Ni4  1  0.99979860  0.49999995  0.57979874  1
  Ni  Ni5  1  0.50020146  0.99979860  0.57979874  1
  Ni  Ni6  1  0.49999995  0.50020146  0.57979874  1
  S  S7  1  0.33427462  0.66637302  0.45612669  1
  S  S8  1  0.00045051  0.66694615  0.35979458  1
  S  S9  1  0.66694615  0.33260334  0.35979458  1
  S  S10  1  0.33260334  0.00045051  0.35979458  1
  S  S11  1  0.99935237  0.33427462  0.45612669  1
  S  S12  1  0.66637302  0.99935237  0.45612669  1
  O  O13  1  0.33333300  0.33333300  0.61019851  1
  O  O14  1  0.33326615  0.83386733  0.61025120  1
  O  O15  1  0.66666700  0.66666700  0.54915577  1
  O  O16  1  0.66672819  0.16749911  0.54924779  1
  O  O17  1  0.16577370  0.66672819  0.54924779  1
  O  O18  1  0.16749911  0.16577370  0.54924779  1
  O  O19  1  0.83286552  0.33326615  0.61025120  1
  O  O20  1  0.83386733  0.83286552  0.61025120  1
