# generated using pymatgen
data_TiWS4
_symmetry_space_group_name_H-M   'P 1'
_cell_length_a   5.65446942
_cell_length_b   5.65446942
_cell_length_c   30.00000000
_cell_angle_alpha   90.00000000
_cell_angle_beta   90.00000000
_cell_angle_gamma   60.00000674
_symmetry_Int_Tables_number   1
_chemical_formula_structural   TiWS4
_chemical_formula_sum   'Ti3 W3 S12'
_cell_volume   830.68359917
_cell_formula_units_Z   3
loop_
 _symmetry_equiv_pos_site_id
 _symmetry_equiv_pos_as_xyz
  1  'x, y, z'
loop_
 _atom_site_type_symbol
 _atom_site_label
 _atom_site_symmetry_multiplicity
 _atom_site_fract_x
 _atom_site_fract_y
 _atom_site_fract_z
 _atom_site_occupancy
  Ti  Ti0  1  0.00000000  0.00000000  0.60865694  1
  Ti  Ti1  1  0.33333300  0.33333300  0.60865694  1
  Ti  Ti2  1  0.66666700  0.66666700  0.60865694  1
  W  W3  1  0.66666700  0.66666700  0.38925609  1
  W  W4  1  0.33333300  0.33333300  0.38925609  1
  W  W5  1  0.00000000  0.00000000  0.38925609  1
  S  S6  1  0.33333300  0.00000000  0.44048220  1
  S  S7  1  0.00000000  0.66666700  0.33790566  1
  S  S8  1  0.66666700  0.33333300  0.33790566  1
  S  S9  1  0.33333300  0.00000000  0.33790566  1
  S  S10  1  0.00000000  0.66666700  0.65954504  1
  S  S11  1  0.66666700  0.33333300  0.65954504  1
  S  S12  1  0.33333300  0.00000000  0.65954504  1
  S  S13  1  0.00000000  0.66666700  0.55794907  1
  S  S14  1  0.66666700  0.33333300  0.55794907  1
  S  S15  1  0.33333300  0.00000000  0.55794907  1
  S  S16  1  0.66666700  0.33333300  0.44048220  1
  S  S17  1  0.00000000  0.66666700  0.44048220  1
