# generated using pymatgen
data_SnPdS4
_symmetry_space_group_name_H-M   'P 1'
_cell_length_a   6.27812188
_cell_length_b   6.27812188
_cell_length_c   30.00000000
_cell_angle_alpha   90.00000000
_cell_angle_beta   90.00000000
_cell_angle_gamma   60.00000128
_symmetry_Int_Tables_number   1
_chemical_formula_structural   SnPdS4
_chemical_formula_sum   'Sn3 Pd3 S12'
_cell_volume   1024.02692789
_cell_formula_units_Z   3
loop_
 _symmetry_equiv_pos_site_id
 _symmetry_equiv_pos_as_xyz
  1  'x, y, z'
loop_
 _atom_site_type_symbol
 _atom_site_label
 _atom_site_symmetry_multiplicity
 _atom_site_fract_x
 _atom_site_fract_y
 _atom_site_fract_z
 _atom_site_occupancy
  Sn  Sn0  1  0.66666700  0.66666700  0.40476395  1
  Sn  Sn1  1  0.33333300  0.33333300  0.40476395  1
  Sn  Sn2  1  0.00000000  0.00000000  0.40476395  1
  Pd  Pd3  1  0.00000000  0.00000000  0.58732181  1
  Pd  Pd4  1  0.33333300  0.33333300  0.58732181  1
  Pd  Pd5  1  0.66666700  0.66666700  0.58732181  1
  S  S6  1  0.33333300  0.66666700  0.45477787  1
  S  S7  1  0.00000000  0.66666700  0.35467309  1
  S  S8  1  0.66666700  0.33333300  0.35467309  1
  S  S9  1  0.33333300  0.00000000  0.35467309  1
  S  S10  1  0.00000000  0.33333300  0.62738623  1
  S  S11  1  0.66666700  0.00000000  0.62738623  1
  S  S12  1  0.33333300  0.66666700  0.62738623  1
  S  S13  1  0.00000000  0.66666700  0.54782705  1
  S  S14  1  0.66666700  0.33333300  0.54782705  1
  S  S15  1  0.33333300  0.00000000  0.54782705  1
  S  S16  1  0.66666700  0.00000000  0.45477787  1
  S  S17  1  0.00000000  0.33333300  0.45477787  1
