# generated using pymatgen
data_Zr4Mo7(Se4O7)2
_symmetry_space_group_name_H-M   'P 1'
_cell_length_a   7.52344569
_cell_length_b   7.52344600
_cell_length_c   30.00000000
_cell_angle_alpha   90.00000000
_cell_angle_beta   90.00000000
_cell_angle_gamma   59.99999863
_symmetry_Int_Tables_number   1
_chemical_formula_structural   Zr4Mo7(Se4O7)2
_chemical_formula_sum   'Zr4 Mo7 Se8 O14'
_cell_volume   1470.56924387
_cell_formula_units_Z   1
loop_
 _symmetry_equiv_pos_site_id
 _symmetry_equiv_pos_as_xyz
  1  'x, y, z'
loop_
 _atom_site_type_symbol
 _atom_site_label
 _atom_site_symmetry_multiplicity
 _atom_site_fract_x
 _atom_site_fract_y
 _atom_site_fract_z
 _atom_site_occupancy
  Zr  Zr0  1  0.00000000  0.00000000  0.60035966  1
  Zr  Zr1  1  0.99981927  0.50062559  0.60063503  1
  Zr  Zr2  1  0.49955514  0.99981927  0.60063503  1
  Zr  Zr3  1  0.50062559  0.49955514  0.60063503  1
  Mo  Mo4  1  0.85699869  0.71434784  0.40675238  1
  Mo  Mo5  1  0.71434784  0.42865347  0.40675238  1
  Mo  Mo6  1  0.57140077  0.14298264  0.40678149  1
  Mo  Mo7  1  0.28561659  0.57140077  0.40678149  1
  Mo  Mo8  1  0.14298264  0.28561659  0.40678149  1
  Mo  Mo9  1  0.00000000  0.00000000  0.40648654  1
  Mo  Mo10  1  0.42865347  0.85699869  0.40675238  1
  Se  Se11  1  0.83365772  0.33313171  0.65402787  1
  Se  Se12  1  0.33333300  0.33333300  0.65412161  1
  Se  Se13  1  0.33313171  0.83320957  0.65402787  1
  Se  Se14  1  0.66666700  0.66666700  0.54740296  1
  Se  Se15  1  0.66593599  0.16645116  0.54764810  1
  Se  Se16  1  0.16761386  0.66593599  0.54764810  1
  Se  Se17  1  0.16645116  0.16761386  0.54764810  1
  Se  Se18  1  0.83320957  0.83365772  0.65402787  1
  O  O19  1  0.61897576  0.90505466  0.44782906  1
  O  O20  1  0.76270160  0.19036660  0.44759361  1
  O  O21  1  0.47596958  0.61897576  0.44782906  1
  O  O22  1  0.33333300  0.33333300  0.44792307  1
  O  O23  1  0.19036660  0.04693180  0.44759361  1
  O  O24  1  0.04760724  0.76152950  0.36565134  1
  O  O25  1  0.47621286  0.61896872  0.36578608  1
  O  O26  1  0.61896872  0.90481841  0.36578608  1
  O  O27  1  0.76152950  0.19086326  0.36565134  1
  O  O28  1  0.33333300  0.33333300  0.36582430  1
  O  O29  1  0.19086326  0.04760724  0.36565134  1
  O  O30  1  0.90505466  0.47596958  0.44782906  1
  O  O31  1  0.90481841  0.47621286  0.36578608  1
  O  O32  1  0.04693180  0.76270160  0.44759361  1
