# generated using pymatgen
data_Sn3(W2O7)2
_symmetry_space_group_name_H-M   'P 1'
_cell_length_a   5.62425414
_cell_length_b   5.62425400
_cell_length_c   30.00000000
_cell_angle_alpha   90.00000000
_cell_angle_beta   90.00000000
_cell_angle_gamma   60.00000081
_symmetry_Int_Tables_number   1
_chemical_formula_structural   Sn3(W2O7)2
_chemical_formula_sum   'Sn3 W4 O14'
_cell_volume   821.82954893
_cell_formula_units_Z   1
loop_
 _symmetry_equiv_pos_site_id
 _symmetry_equiv_pos_as_xyz
  1  'x, y, z'
loop_
 _atom_site_type_symbol
 _atom_site_label
 _atom_site_symmetry_multiplicity
 _atom_site_fract_x
 _atom_site_fract_y
 _atom_site_fract_z
 _atom_site_occupancy
  Sn  Sn0  1  0.00000000  0.00000000  0.57728212  1
  Sn  Sn1  1  0.33333300  0.33333300  0.57729200  1
  Sn  Sn2  1  0.66666700  0.66666700  0.57728870  1
  W  W3  1  0.50025610  0.49973400  0.41127000  1
  W  W4  1  0.49973400  0.00000990  0.41127000  1
  W  W5  1  0.00000000  0.00000000  0.41119644  1
  W  W6  1  0.00000990  0.50025610  0.41127000  1
  O  O7  1  0.66669730  0.00026388  0.61073339  1
  O  O8  1  0.00026388  0.33303883  0.61073339  1
  O  O9  1  0.99945810  0.66664040  0.54395671  1
  O  O10  1  0.66670489  0.16571038  0.45267819  1
  O  O11  1  0.66664040  0.33390150  0.54395671  1
  O  O12  1  0.33390150  0.99945810  0.54395671  1
  O  O13  1  0.16646418  0.16695987  0.36968466  1
  O  O14  1  0.16695987  0.66657696  0.36968466  1
  O  O15  1  0.66657696  0.16646418  0.36968466  1
  O  O16  1  0.66666700  0.66666700  0.36974677  1
  O  O17  1  0.16571038  0.16758573  0.45267819  1
  O  O18  1  0.16758573  0.66670489  0.45267819  1
  O  O19  1  0.33303883  0.66669730  0.61073339  1
  O  O20  1  0.66666700  0.66666700  0.45285013  1
