# generated using pymatgen
data_HfTe2WS2
_symmetry_space_group_name_H-M   'P 1'
_cell_length_a   6.14283101
_cell_length_b   6.14283101
_cell_length_c   30.00000000
_cell_angle_alpha   90.00000000
_cell_angle_beta   90.00000000
_cell_angle_gamma   59.99998910
_symmetry_Int_Tables_number   1
_chemical_formula_structural   HfTe2WS2
_chemical_formula_sum   'Hf3 Te6 W3 S6'
_cell_volume   980.36765670
_cell_formula_units_Z   3
loop_
 _symmetry_equiv_pos_site_id
 _symmetry_equiv_pos_as_xyz
  1  'x, y, z'
loop_
 _atom_site_type_symbol
 _atom_site_label
 _atom_site_symmetry_multiplicity
 _atom_site_fract_x
 _atom_site_fract_y
 _atom_site_fract_z
 _atom_site_occupancy
  Hf  Hf0  1  0.00000000  0.00000000  0.60490409  1
  Hf  Hf1  1  0.33333300  0.33333300  0.60490409  1
  Hf  Hf2  1  0.66666700  0.66666700  0.60490409  1
  Te  Te3  1  0.33333300  0.00000000  0.44745109  1
  Te  Te4  1  0.00000000  0.66666700  0.32675555  1
  Te  Te5  1  0.66666700  0.33333300  0.32675555  1
  Te  Te6  1  0.33333300  0.00000000  0.32675555  1
  Te  Te7  1  0.66666700  0.33333300  0.44745109  1
  Te  Te8  1  0.00000000  0.66666700  0.44745109  1
  W  W9  1  0.00000000  0.00000000  0.38711116  1
  W  W10  1  0.33333300  0.33333300  0.38711116  1
  W  W11  1  0.66666700  0.66666700  0.38711116  1
  S  S12  1  0.00000000  0.33333300  0.65663550  1
  S  S13  1  0.66666700  0.00000000  0.55286961  1
  S  S14  1  0.33333300  0.66666700  0.55286961  1
  S  S15  1  0.00000000  0.33333300  0.55286961  1
  S  S16  1  0.33333300  0.66666700  0.65663550  1
  S  S17  1  0.66666700  0.00000000  0.65663550  1
