# generated using pymatgen
data_Cr4Pt3Se14
_symmetry_space_group_name_H-M   'P 1'
_cell_length_a   6.45413800
_cell_length_b   6.45413760
_cell_length_c   30.00000000
_cell_angle_alpha   90.00000000
_cell_angle_beta   90.00000000
_cell_angle_gamma   59.99999792
_symmetry_Int_Tables_number   1
_chemical_formula_structural   Cr4Pt3Se14
_chemical_formula_sum   'Cr4 Pt3 Se14'
_cell_volume   1082.25186845
_cell_formula_units_Z   1
loop_
 _symmetry_equiv_pos_site_id
 _symmetry_equiv_pos_as_xyz
  1  'x, y, z'
loop_
 _atom_site_type_symbol
 _atom_site_label
 _atom_site_symmetry_multiplicity
 _atom_site_fract_x
 _atom_site_fract_y
 _atom_site_fract_z
 _atom_site_occupancy
  Cr  Cr0  1  0.99958397  0.49887066  0.39224474  1
  Cr  Cr1  1  0.49887066  0.50154537  0.39224474  1
  Cr  Cr2  1  0.50154537  0.99958397  0.39224474  1
  Cr  Cr3  1  0.00000000  0.00000000  0.39219956  1
  Pt  Pt4  1  0.00000000  0.00000000  0.59738171  1
  Pt  Pt5  1  0.66666700  0.66666700  0.59885526  1
  Pt  Pt6  1  0.33333300  0.33333300  0.59757753  1
  Se  Se7  1  0.66625994  0.99637301  0.55418966  1
  Se  Se8  1  0.33030686  0.00271237  0.64205267  1
  Se  Se9  1  0.66698077  0.33030686  0.64205267  1
  Se  Se10  1  0.00271237  0.66698077  0.64205267  1
  Se  Se11  1  0.99637301  0.33736705  0.55418966  1
  Se  Se12  1  0.66653560  0.16928806  0.44410207  1
  Se  Se13  1  0.16767735  0.16575589  0.34019873  1
  Se  Se14  1  0.16575589  0.66656776  0.34019873  1
  Se  Se15  1  0.66656776  0.16767735  0.34019873  1
  Se  Se16  1  0.66666700  0.66666700  0.34016560  1
  Se  Se17  1  0.16928806  0.16417734  0.44410207  1
  Se  Se18  1  0.16417734  0.66653560  0.44410207  1
  Se  Se19  1  0.33736705  0.66625994  0.55418966  1
  Se  Se20  1  0.66666700  0.66666700  0.44451071  1
