# generated using pymatgen
data_Ni4Pt3O14
_symmetry_space_group_name_H-M   'P 1'
_cell_length_a   5.55747925
_cell_length_b   5.55747900
_cell_length_c   30.00000000
_cell_angle_alpha   90.00000000
_cell_angle_beta   90.00000000
_cell_angle_gamma   59.99999556
_symmetry_Int_Tables_number   1
_chemical_formula_structural   Ni4Pt3O14
_chemical_formula_sum   'Ni4 Pt3 O14'
_cell_volume   802.43072141
_cell_formula_units_Z   1
loop_
 _symmetry_equiv_pos_site_id
 _symmetry_equiv_pos_as_xyz
  1  'x, y, z'
loop_
 _atom_site_type_symbol
 _atom_site_label
 _atom_site_symmetry_multiplicity
 _atom_site_fract_x
 _atom_site_fract_y
 _atom_site_fract_z
 _atom_site_occupancy
  Ni  Ni0  1  0.00000000  0.00000000  0.57619611  1
  Ni  Ni1  1  0.99986183  0.50033051  0.57612008  1
  Ni  Ni2  1  0.49980766  0.99986183  0.57612008  1
  Ni  Ni3  1  0.50033051  0.49980766  0.57612008  1
  Pt  Pt4  1  0.66666700  0.66666700  0.42855061  1
  Pt  Pt5  1  0.33333300  0.33333300  0.42872457  1
  Pt  Pt6  1  0.00000000  0.00000000  0.42874243  1
  O  O7  1  0.33440071  0.99901334  0.45861787  1
  O  O8  1  0.66672776  0.00061353  0.39834865  1
  O  O9  1  0.33265871  0.66672776  0.39834865  1
  O  O10  1  0.00061353  0.33265871  0.39834865  1
  O  O11  1  0.83284425  0.83376323  0.60831306  1
  O  O12  1  0.66658595  0.33440071  0.45861787  1
  O  O13  1  0.33333300  0.33333300  0.60827829  1
  O  O14  1  0.33339153  0.83284425  0.60831306  1
  O  O15  1  0.66666700  0.66666700  0.54389409  1
  O  O16  1  0.66662398  0.16546411  0.54409063  1
  O  O17  1  0.16791290  0.66662398  0.54409063  1
  O  O18  1  0.16546411  0.16791290  0.54409063  1
  O  O19  1  0.83376323  0.33339153  0.60831306  1
  O  O20  1  0.99901334  0.66658595  0.45861787  1
