# generated using pymatgen
data_Hf4Zr3(S3O4)2
_symmetry_space_group_name_H-M   'P 1'
_cell_length_a   6.43813075
_cell_length_b   6.43813000
_cell_length_c   30.00000000
_cell_angle_alpha   90.00000000
_cell_angle_beta   90.00000000
_cell_angle_gamma   60.00000386
_symmetry_Int_Tables_number   1
_chemical_formula_structural   Hf4Zr3(S3O4)2
_chemical_formula_sum   'Hf4 Zr3 S6 O8'
_cell_volume   1076.89023168
_cell_formula_units_Z   1
loop_
 _symmetry_equiv_pos_site_id
 _symmetry_equiv_pos_as_xyz
  1  'x, y, z'
loop_
 _atom_site_type_symbol
 _atom_site_label
 _atom_site_symmetry_multiplicity
 _atom_site_fract_x
 _atom_site_fract_y
 _atom_site_fract_z
 _atom_site_occupancy
  Hf  Hf0  1  0.00000000  0.00000000  0.58522922  1
  Hf  Hf1  1  0.99990652  0.50004690  0.58476874  1
  Hf  Hf2  1  0.50004658  0.99990652  0.58476874  1
  Hf  Hf3  1  0.50004690  0.50004658  0.58476874  1
  Zr  Zr4  1  0.66666700  0.66666700  0.40111334  1
  Zr  Zr5  1  0.33333300  0.33333300  0.40144211  1
  Zr  Zr6  1  0.00000000  0.00000000  0.40135736  1
  S  S7  1  0.33379148  0.66677500  0.44888758  1
  S  S8  1  0.00041457  0.66661585  0.35349740  1
  S  S9  1  0.66661585  0.33296957  0.35349740  1
  S  S10  1  0.33296957  0.00041457  0.35349740  1
  S  S11  1  0.99943351  0.33379148  0.44888758  1
  S  S12  1  0.66677500  0.99943351  0.44888758  1
  O  O13  1  0.33333300  0.33333300  0.61729844  1
  O  O14  1  0.33398580  0.83297706  0.61748430  1
  O  O15  1  0.66666700  0.66666700  0.55221789  1
  O  O16  1  0.66737465  0.16681388  0.55250952  1
  O  O17  1  0.16581248  0.66737465  0.55250952  1
  O  O18  1  0.16681388  0.16581248  0.55250952  1
  O  O19  1  0.83303615  0.33398580  0.61748430  1
  O  O20  1  0.83297706  0.83303615  0.61748430  1
