# generated using pymatgen
data_Zr3(Mo2S7)2
_symmetry_space_group_name_H-M   'P 1'
_cell_length_a   6.27700097
_cell_length_b   6.27700100
_cell_length_c   30.00000000
_cell_angle_alpha   90.00000000
_cell_angle_beta   90.00000000
_cell_angle_gamma   59.99999456
_symmetry_Int_Tables_number   1
_chemical_formula_structural   Zr3(Mo2S7)2
_chemical_formula_sum   'Zr3 Mo4 S14'
_cell_volume   1023.66123210
_cell_formula_units_Z   1
loop_
 _symmetry_equiv_pos_site_id
 _symmetry_equiv_pos_as_xyz
  1  'x, y, z'
loop_
 _atom_site_type_symbol
 _atom_site_label
 _atom_site_symmetry_multiplicity
 _atom_site_fract_x
 _atom_site_fract_y
 _atom_site_fract_z
 _atom_site_occupancy
  Zr  Zr0  1  0.66666700  0.66666700  0.38629338  1
  Zr  Zr1  1  0.33333300  0.33333300  0.39863312  1
  Zr  Zr2  1  0.00000000  0.00000000  0.39940418  1
  Mo  Mo3  1  0.00000000  0.00000000  0.60636352  1
  Mo  Mo4  1  0.99981100  0.50079293  0.60636567  1
  Mo  Mo5  1  0.49939607  0.99981100  0.60636567  1
  Mo  Mo6  1  0.50079293  0.49939607  0.60636567  1
  S  S7  1  0.34352329  0.99027238  0.44645475  1
  S  S8  1  0.01015852  0.66691002  0.34297732  1
  S  S9  1  0.66691002  0.32293146  0.34297732  1
  S  S10  1  0.32293146  0.01015852  0.34297732  1
  S  S11  1  0.66671880  0.16605249  0.65893673  1
  S  S12  1  0.66620433  0.34352329  0.44645475  1
  S  S13  1  0.16722971  0.66671880  0.65893673  1
  S  S14  1  0.16605249  0.16722971  0.65893673  1
  S  S15  1  0.66666700  0.66666700  0.55372903  1
  S  S16  1  0.66652087  0.16537603  0.55394139  1
  S  S17  1  0.16810410  0.66652087  0.55394139  1
  S  S18  1  0.16537603  0.16810410  0.55394139  1
  S  S19  1  0.66666700  0.66666700  0.65894818  1
  S  S20  1  0.99027238  0.66620433  0.44645475  1
