# generated using pymatgen
data_Te14Mo4Pt3
_symmetry_space_group_name_H-M   'P 1'
_cell_length_a   7.02536426
_cell_length_b   7.02536400
_cell_length_c   30.00000000
_cell_angle_alpha   90.00000000
_cell_angle_beta   90.00000000
_cell_angle_gamma   60.00000124
_symmetry_Int_Tables_number   1
_chemical_formula_structural   Te14Mo4Pt3
_chemical_formula_sum   'Te14 Mo4 Pt3'
_cell_volume   1282.29978685
_cell_formula_units_Z   1
loop_
 _symmetry_equiv_pos_site_id
 _symmetry_equiv_pos_as_xyz
  1  'x, y, z'
loop_
 _atom_site_type_symbol
 _atom_site_label
 _atom_site_symmetry_multiplicity
 _atom_site_fract_x
 _atom_site_fract_y
 _atom_site_fract_z
 _atom_site_occupancy
  Te  Te0  1  0.66666700  0.66666700  0.44237479  1
  Te  Te1  1  0.16318746  0.66649532  0.44181900  1
  Te  Te2  1  0.17031822  0.16318746  0.44181900  1
  Te  Te3  1  0.99473429  0.33935751  0.55903961  1
  Te  Te4  1  0.33935751  0.66590820  0.55903961  1
  Te  Te5  1  0.66590820  0.99473429  0.55903961  1
  Te  Te6  1  0.32907122  0.00372596  0.65020396  1
  Te  Te7  1  0.66720282  0.32907122  0.65020396  1
  Te  Te8  1  0.00372596  0.66720282  0.65020396  1
  Te  Te9  1  0.66666700  0.66666700  0.32101466  1
  Te  Te10  1  0.66649532  0.17031822  0.44181900  1
  Te  Te11  1  0.66653816  0.16848152  0.32110333  1
  Te  Te12  1  0.16498132  0.66653816  0.32110333  1
  Te  Te13  1  0.16848152  0.16498132  0.32110333  1
  Mo  Mo14  1  0.99942000  0.49798928  0.38154499  1
  Mo  Mo15  1  0.50259072  0.99942000  0.38154499  1
  Mo  Mo16  1  0.00000000  0.00000000  0.38150273  1
  Mo  Mo17  1  0.49798928  0.50259072  0.38154499  1
  Pt  Pt18  1  0.66666700  0.66666700  0.60597868  1
  Pt  Pt19  1  0.33333300  0.33333300  0.60375954  1
  Pt  Pt20  1  0.00000000  0.00000000  0.60336395  1
