# generated using pymatgen
data_ZrPdSe4
_symmetry_space_group_name_H-M   'P 1'
_cell_length_a   3.71638850
_cell_length_b   3.71638900
_cell_length_c   30.00000000
_cell_angle_alpha   90.00000000
_cell_angle_beta   90.00000000
_cell_angle_gamma   60.00000448
_symmetry_Int_Tables_number   1
_chemical_formula_structural   ZrPdSe4
_chemical_formula_sum   'Zr1 Pd1 Se4'
_cell_volume   358.83449050
_cell_formula_units_Z   1
loop_
 _symmetry_equiv_pos_site_id
 _symmetry_equiv_pos_as_xyz
  1  'x, y, z'
loop_
 _atom_site_type_symbol
 _atom_site_label
 _atom_site_symmetry_multiplicity
 _atom_site_fract_x
 _atom_site_fract_y
 _atom_site_fract_z
 _atom_site_occupancy
  Zr  Zr0  1  0.00000000  0.00000000  0.38570927  1
  Pd  Pd1  1  0.00000000  0.00000000  0.60206100  1
  Se  Se2  1  0.33333300  0.33333300  0.55815561  1
  Se  Se3  1  0.66666700  0.66666700  0.64617552  1
  Se  Se4  1  0.33333300  0.33333300  0.32924955  1
  Se  Se5  1  0.33333300  0.33333300  0.44154904  1
