# generated using pymatgen
data_Hf3Te6(WS2)4
_symmetry_space_group_name_H-M   'P 1'
_cell_length_a   6.57163900
_cell_length_b   6.57163897
_cell_length_c   30.00000000
_cell_angle_alpha   90.00000000
_cell_angle_beta   90.00000000
_cell_angle_gamma   59.99999484
_symmetry_Int_Tables_number   1
_chemical_formula_structural   Hf3Te6(WS2)4
_chemical_formula_sum   'Hf3 Te6 W4 S8'
_cell_volume   1122.01653920
_cell_formula_units_Z   1
loop_
 _symmetry_equiv_pos_site_id
 _symmetry_equiv_pos_as_xyz
  1  'x, y, z'
loop_
 _atom_site_type_symbol
 _atom_site_label
 _atom_site_symmetry_multiplicity
 _atom_site_fract_x
 _atom_site_fract_y
 _atom_site_fract_z
 _atom_site_occupancy
  Hf  Hf0  1  0.00000000  0.00000000  0.61570812  1
  Hf  Hf1  1  0.33333300  0.33333300  0.61659206  1
  Hf  Hf2  1  0.66666700  0.66666700  0.62059520  1
  Te  Te3  1  0.99503308  0.33924658  0.55551024  1
  Te  Te4  1  0.33924658  0.66572034  0.55551024  1
  Te  Te5  1  0.66572034  0.99503308  0.55551024  1
  Te  Te6  1  0.00402075  0.32852860  0.68010600  1
  Te  Te7  1  0.32852860  0.66745065  0.68010600  1
  Te  Te8  1  0.66745065  0.00402075  0.68010600  1
  W  W9  1  0.49929023  0.50089633  0.39093955  1
  W  W10  1  0.50089633  0.99981344  0.39093955  1
  W  W11  1  0.99981344  0.49929023  0.39093955  1
  W  W12  1  0.00000000  0.00000000  0.39094669  1
  S  S13  1  0.16725457  0.16609043  0.33981740  1
  S  S14  1  0.16609043  0.66665599  0.33981740  1
  S  S15  1  0.66665599  0.16725457  0.33981740  1
  S  S16  1  0.66666700  0.66666700  0.33983854  1
  S  S17  1  0.16839653  0.16504809  0.44188048  1
  S  S18  1  0.16504809  0.66655638  0.44188048  1
  S  S19  1  0.66655638  0.16839653  0.44188048  1
  S  S20  1  0.66666700  0.66666700  0.44216539  1
