# generated using pymatgen
data_Ni4Te6Pd3Se8
_symmetry_space_group_name_H-M   'P 1'
_cell_length_a   7.02063812
_cell_length_b   7.02063800
_cell_length_c   30.00000000
_cell_angle_alpha   90.00000000
_cell_angle_beta   90.00000000
_cell_angle_gamma   60.00000058
_symmetry_Int_Tables_number   1
_chemical_formula_structural   Ni4Te6Pd3Se8
_chemical_formula_sum   'Ni4 Te6 Pd3 Se8'
_cell_volume   1280.57511278
_cell_formula_units_Z   1
loop_
 _symmetry_equiv_pos_site_id
 _symmetry_equiv_pos_as_xyz
  1  'x, y, z'
loop_
 _atom_site_type_symbol
 _atom_site_label
 _atom_site_symmetry_multiplicity
 _atom_site_fract_x
 _atom_site_fract_y
 _atom_site_fract_z
 _atom_site_occupancy
  Ni  Ni0  1  0.00000000  0.00000000  0.58665352  1
  Ni  Ni1  1  0.99890588  0.49312332  0.58771860  1
  Ni  Ni2  1  0.50797080  0.99890588  0.58771860  1
  Ni  Ni3  1  0.49312332  0.50797080  0.58771860  1
  Te  Te4  1  0.34089559  0.66508810  0.45715085  1
  Te  Te5  1  0.00669667  0.66945687  0.36652002  1
  Te  Te6  1  0.66945687  0.32384646  0.36652002  1
  Te  Te7  1  0.32384646  0.00669667  0.36652002  1
  Te  Te8  1  0.66508810  0.99401631  0.45715085  1
  Te  Te9  1  0.99401631  0.34089559  0.45715085  1
  Pd  Pd10  1  0.00000000  0.00000000  0.41498483  1
  Pd  Pd11  1  0.33333300  0.33333300  0.41290650  1
  Pd  Pd12  1  0.66666700  0.66666700  0.40879452  1
  Se  Se13  1  0.33275233  0.84256216  0.62964885  1
  Se  Se14  1  0.82468451  0.33275233  0.62964885  1
  Se  Se15  1  0.66666700  0.66666700  0.54536334  1
  Se  Se16  1  0.66497997  0.17188944  0.54601669  1
  Se  Se17  1  0.16313159  0.66497997  0.54601669  1
  Se  Se18  1  0.17188944  0.16313159  0.54601669  1
  Se  Se19  1  0.33333300  0.33333300  0.62980926  1
  Se  Se20  1  0.84256216  0.82468451  0.62964885  1
