# generated using pymatgen
data_NiPdSe4
_symmetry_space_group_name_H-M   'P 1'
_cell_length_a   3.63618784
_cell_length_b   3.63618800
_cell_length_c   30.00000000
_cell_angle_alpha   90.00000000
_cell_angle_beta   90.00000000
_cell_angle_gamma   59.99999857
_symmetry_Int_Tables_number   1
_chemical_formula_structural   NiPdSe4
_chemical_formula_sum   'Ni1 Pd1 Se4'
_cell_volume   343.51406201
_cell_formula_units_Z   1
loop_
 _symmetry_equiv_pos_site_id
 _symmetry_equiv_pos_as_xyz
  1  'x, y, z'
loop_
 _atom_site_type_symbol
 _atom_site_label
 _atom_site_symmetry_multiplicity
 _atom_site_fract_x
 _atom_site_fract_y
 _atom_site_fract_z
 _atom_site_occupancy
  Ni  Ni0  1  0.00000000  0.00000000  0.57792397  1
  Pd  Pd1  1  0.00000000  0.00000000  0.41976450  1
  Se  Se2  1  0.33333300  0.33333300  0.53882969  1
  Se  Se3  1  0.66666700  0.66666700  0.61826111  1
  Se  Se4  1  0.33333300  0.33333300  0.37324590  1
  Se  Se5  1  0.66666700  0.66666700  0.46501383  1
