# generated using pymatgen
data_Zr3Sn4(Se3O4)2
_symmetry_space_group_name_H-M   'P 1'
_cell_length_a   6.50980208
_cell_length_b   6.50980208
_cell_length_c   30.00000000
_cell_angle_alpha   90.00000000
_cell_angle_beta   90.00000000
_cell_angle_gamma   59.99999917
_symmetry_Int_Tables_number   1
_chemical_formula_structural   Zr3Sn4(Se3O4)2
_chemical_formula_sum   'Zr3 Sn4 Se6 O8'
_cell_volume   1101.00033854
_cell_formula_units_Z   1
loop_
 _symmetry_equiv_pos_site_id
 _symmetry_equiv_pos_as_xyz
  1  'x, y, z'
loop_
 _atom_site_type_symbol
 _atom_site_label
 _atom_site_symmetry_multiplicity
 _atom_site_fract_x
 _atom_site_fract_y
 _atom_site_fract_z
 _atom_site_occupancy
  Zr  Zr0  1  0.66666700  0.66666700  0.39643888  1
  Zr  Zr1  1  0.33333300  0.33333300  0.39751032  1
  Zr  Zr2  1  0.00000000  0.00000000  0.39764614  1
  Sn  Sn3  1  0.00000000  0.00000000  0.58577098  1
  Sn  Sn4  1  0.99986009  0.49993951  0.58562074  1
  Sn  Sn5  1  0.50020041  0.99986009  0.58562074  1
  Sn  Sn6  1  0.49993951  0.50020041  0.58562074  1
  Se  Se7  1  0.33500121  0.66656489  0.45032804  1
  Se  Se8  1  0.00129555  0.66682715  0.34377441  1
  Se  Se9  1  0.66682715  0.33187730  0.34377441  1
  Se  Se10  1  0.33187730  0.00129555  0.34377441  1
  Se  Se11  1  0.99843390  0.33500121  0.45032804  1
  Se  Se12  1  0.66656489  0.99843390  0.45032804  1
  O  O13  1  0.33333300  0.33333300  0.61888099  1
  O  O14  1  0.33357853  0.83292018  0.61897206  1
  O  O15  1  0.66666700  0.66666700  0.55208597  1
  O  O16  1  0.66690113  0.16736248  0.55230599  1
  O  O17  1  0.16573738  0.66690113  0.55230599  1
  O  O18  1  0.16736248  0.16573738  0.55230599  1
  O  O19  1  0.83350030  0.33357853  0.61897206  1
  O  O20  1  0.83292018  0.83350030  0.61897206  1
