# generated using pymatgen
data_ZrW(SeS)2
_symmetry_space_group_name_H-M   'P 1'
_cell_length_a   3.44522716
_cell_length_b   3.44522700
_cell_length_c   30.00000000
_cell_angle_alpha   90.00000000
_cell_angle_beta   90.00000000
_cell_angle_gamma   59.99999194
_symmetry_Int_Tables_number   1
_chemical_formula_structural   ZrW(SeS)2
_chemical_formula_sum   'Zr1 W1 Se2 S2'
_cell_volume   308.38095958
_cell_formula_units_Z   1
loop_
 _symmetry_equiv_pos_site_id
 _symmetry_equiv_pos_as_xyz
  1  'x, y, z'
loop_
 _atom_site_type_symbol
 _atom_site_label
 _atom_site_symmetry_multiplicity
 _atom_site_fract_x
 _atom_site_fract_y
 _atom_site_fract_z
 _atom_site_occupancy
  Zr  Zr0  1  0.00000000  0.00000000  0.38817951  1
  W  W1  1  0.00000000  0.00000000  0.61542641  1
  Se  Se2  1  0.33333300  0.33333300  0.56126856  1
  Se  Se3  1  0.33333300  0.33333300  0.66966640  1
  S  S4  1  0.33333300  0.33333300  0.33466569  1
  S  S5  1  0.33333300  0.33333300  0.44172843  1
