# generated using pymatgen
data_TiTeSe
_symmetry_space_group_name_H-M   'P 1'
_cell_length_a   6.26092200
_cell_length_b   6.26092156
_cell_length_c   30.00000000
_cell_angle_alpha   90.00000000
_cell_angle_beta   90.00000000
_cell_angle_gamma   59.99999770
_symmetry_Int_Tables_number   1
_chemical_formula_structural   TiTeSe
_chemical_formula_sum   'Ti6 Te6 Se6'
_cell_volume   1018.42354836
_cell_formula_units_Z   6
loop_
 _symmetry_equiv_pos_site_id
 _symmetry_equiv_pos_as_xyz
  1  'x, y, z'
loop_
 _atom_site_type_symbol
 _atom_site_label
 _atom_site_symmetry_multiplicity
 _atom_site_fract_x
 _atom_site_fract_y
 _atom_site_fract_z
 _atom_site_occupancy
  Ti  Ti0  1  0.00000000  0.00000000  0.61513276  1
  Ti  Ti1  1  0.33333300  0.33333300  0.61513276  1
  Ti  Ti2  1  0.66666700  0.66666700  0.61513276  1
  Ti  Ti3  1  0.66666700  0.66666700  0.37955179  1
  Ti  Ti4  1  0.33333300  0.33333300  0.37955179  1
  Ti  Ti5  1  0.00000000  0.00000000  0.37955179  1
  Te  Te6  1  0.00000000  0.33333300  0.43978035  1
  Te  Te7  1  0.66666700  0.00000000  0.31813895  1
  Te  Te8  1  0.33333300  0.66666700  0.31813895  1
  Te  Te9  1  0.00000000  0.33333300  0.31813895  1
  Te  Te10  1  0.66666700  0.00000000  0.43978035  1
  Te  Te11  1  0.33333300  0.66666700  0.43978035  1
  Se  Se12  1  0.33333300  0.66666700  0.66789488  1
  Se  Se13  1  0.00000000  0.33333300  0.66789488  1
  Se  Se14  1  0.66666700  0.00000000  0.56257628  1
  Se  Se15  1  0.33333300  0.66666700  0.56257628  1
  Se  Se16  1  0.00000000  0.33333300  0.56257628  1
  Se  Se17  1  0.66666700  0.00000000  0.66789488  1
