# generated using pymatgen
data_Ni4Pb3O14
_symmetry_space_group_name_H-M   'P 1'
_cell_length_a   5.77214507
_cell_length_b   5.77214507
_cell_length_c   30.00000000
_cell_angle_alpha   90.00000000
_cell_angle_beta   90.00000000
_cell_angle_gamma   60.00001062
_symmetry_Int_Tables_number   1
_chemical_formula_structural   Ni4Pb3O14
_chemical_formula_sum   'Ni4 Pb3 O14'
_cell_volume   865.61825869
_cell_formula_units_Z   1
loop_
 _symmetry_equiv_pos_site_id
 _symmetry_equiv_pos_as_xyz
  1  'x, y, z'
loop_
 _atom_site_type_symbol
 _atom_site_label
 _atom_site_symmetry_multiplicity
 _atom_site_fract_x
 _atom_site_fract_y
 _atom_site_fract_z
 _atom_site_occupancy
  Ni  Ni0  1  0.00000000  0.00000000  0.57731474  1
  Ni  Ni1  1  0.99987340  0.49989193  0.57718580  1
  Ni  Ni2  1  0.50023467  0.99987340  0.57718580  1
  Ni  Ni3  1  0.49989193  0.50023467  0.57718580  1
  Pb  Pb4  1  0.66666700  0.66666700  0.42351280  1
  Pb  Pb5  1  0.33333300  0.33333300  0.42313850  1
  Pb  Pb6  1  0.00000000  0.00000000  0.42313822  1
  O  O7  1  0.33339656  0.66666179  0.45998981  1
  O  O8  1  0.99978998  0.66667953  0.38635608  1
  O  O9  1  0.66667953  0.33353049  0.38635608  1
  O  O10  1  0.33353049  0.99978998  0.38635608  1
  O  O11  1  0.83365591  0.83280107  0.60780190  1
  O  O12  1  0.66666179  0.99994165  0.45998981  1
  O  O13  1  0.33333300  0.33333300  0.60779228  1
  O  O14  1  0.33354201  0.83365591  0.60780190  1
  O  O15  1  0.66666700  0.66666700  0.54649348  1
  O  O16  1  0.66666647  0.16792167  0.54676373  1
  O  O17  1  0.16541286  0.66666647  0.54676373  1
  O  O18  1  0.16792167  0.16541286  0.54676373  1
  O  O19  1  0.83280107  0.33354201  0.60780190  1
  O  O20  1  0.99994165  0.33339656  0.45998981  1
