# generated using pymatgen
data_HfTeS
_symmetry_space_group_name_H-M   'P 1'
_cell_length_a   3.78038350
_cell_length_b   3.78038300
_cell_length_c   30.00000000
_cell_angle_alpha   90.00000000
_cell_angle_beta   90.00000000
_cell_angle_gamma   59.99999560
_symmetry_Int_Tables_number   1
_chemical_formula_structural   HfTeS
_chemical_formula_sum   'Hf2 Te2 S2'
_cell_volume   371.29878440
_cell_formula_units_Z   2
loop_
 _symmetry_equiv_pos_site_id
 _symmetry_equiv_pos_as_xyz
  1  'x, y, z'
loop_
 _atom_site_type_symbol
 _atom_site_label
 _atom_site_symmetry_multiplicity
 _atom_site_fract_x
 _atom_site_fract_y
 _atom_site_fract_z
 _atom_site_occupancy
  Hf  Hf0  1  0.00000000  0.00000000  0.60879557  1
  Hf  Hf1  1  0.00000000  0.00000000  0.37794860  1
  Te  Te2  1  0.33333300  0.33333300  0.31519288  1
  Te  Te3  1  0.33333300  0.33333300  0.44039803  1
  S  S4  1  0.33333300  0.33333300  0.56310006  1
  S  S5  1  0.66666700  0.66666700  0.65455487  1
