# generated using pymatgen
data_Zr3(Cr2Se7)2
_symmetry_space_group_name_H-M   'P 1'
_cell_length_a   6.41599331
_cell_length_b   6.41599300
_cell_length_c   30.00000000
_cell_angle_alpha   90.00000000
_cell_angle_beta   90.00000000
_cell_angle_gamma   59.99999645
_symmetry_Int_Tables_number   1
_chemical_formula_structural   Zr3(Cr2Se7)2
_chemical_formula_sum   'Zr3 Cr4 Se14'
_cell_volume   1069.49720739
_cell_formula_units_Z   1
loop_
 _symmetry_equiv_pos_site_id
 _symmetry_equiv_pos_as_xyz
  1  'x, y, z'
loop_
 _atom_site_type_symbol
 _atom_site_label
 _atom_site_symmetry_multiplicity
 _atom_site_fract_x
 _atom_site_fract_y
 _atom_site_fract_z
 _atom_site_occupancy
  Zr  Zr0  1  0.66666700  0.66666700  0.38180420  1
  Zr  Zr1  1  0.33333300  0.33333300  0.39057845  1
  Zr  Zr2  1  0.00000000  0.00000000  0.39216607  1
  Cr  Cr3  1  0.00000000  0.00000000  0.60872651  1
  Cr  Cr4  1  0.99975397  0.50114192  0.60874503  1
  Cr  Cr5  1  0.49910412  0.99975397  0.60874503  1
  Cr  Cr6  1  0.50114192  0.49910412  0.60874503  1
  Se  Se7  1  0.34223672  0.99247564  0.44429252  1
  Se  Se8  1  0.00782607  0.66772415  0.33199467  1
  Se  Se9  1  0.66772415  0.32444978  0.33199467  1
  Se  Se10  1  0.32444978  0.00782607  0.33199467  1
  Se  Se11  1  0.66667055  0.16598967  0.66097549  1
  Se  Se12  1  0.66528764  0.34223672  0.44429252  1
  Se  Se13  1  0.16734078  0.66667055  0.66097549  1
  Se  Se14  1  0.16598967  0.16734078  0.66097549  1
  Se  Se15  1  0.66666700  0.66666700  0.55639837  1
  Se  Se16  1  0.66648096  0.16500062  0.55662498  1
  Se  Se17  1  0.16851942  0.66648096  0.55662498  1
  Se  Se18  1  0.16500062  0.16851942  0.55662498  1
  Se  Se19  1  0.66666700  0.66666700  0.66100936  1
  Se  Se20  1  0.99247564  0.66528764  0.44429252  1
