# generated using pymatgen
data_Zr4Te6Pd3O8
_symmetry_space_group_name_H-M   'P 1'
_cell_length_a   6.74385000
_cell_length_b   6.74384964
_cell_length_c   30.00000000
_cell_angle_alpha   90.00000000
_cell_angle_beta   90.00000000
_cell_angle_gamma   59.99999822
_symmetry_Int_Tables_number   1
_chemical_formula_structural   Zr4Te6Pd3O8
_chemical_formula_sum   'Zr4 Te6 Pd3 O8'
_cell_volume   1181.59231885
_cell_formula_units_Z   1
loop_
 _symmetry_equiv_pos_site_id
 _symmetry_equiv_pos_as_xyz
  1  'x, y, z'
loop_
 _atom_site_type_symbol
 _atom_site_label
 _atom_site_symmetry_multiplicity
 _atom_site_fract_x
 _atom_site_fract_y
 _atom_site_fract_z
 _atom_site_occupancy
  Zr  Zr0  1  0.00044139  0.50037012  0.41269711  1
  Zr  Zr1  1  0.50037012  0.49918849  0.41269711  1
  Zr  Zr2  1  0.49918849  0.00044139  0.41269711  1
  Zr  Zr3  1  0.00000000  0.00000000  0.41189885  1
  Te  Te4  1  0.00739209  0.33615369  0.55165388  1
  Te  Te5  1  0.33615369  0.65645422  0.55165388  1
  Te  Te6  1  0.65645422  0.00739209  0.55165388  1
  Te  Te7  1  0.33083954  0.99396001  0.64923719  1
  Te  Te8  1  0.67520045  0.33083954  0.64923719  1
  Te  Te9  1  0.99396001  0.67520045  0.64923719  1
  Pd  Pd10  1  0.00000000  0.00000000  0.59867617  1
  Pd  Pd11  1  0.66666700  0.66666700  0.59968394  1
  Pd  Pd12  1  0.33333300  0.33333300  0.60254014  1
  O  O13  1  0.16725498  0.16745113  0.38162127  1
  O  O14  1  0.16745113  0.66529489  0.38162127  1
  O  O15  1  0.66529489  0.16725498  0.38162127  1
  O  O16  1  0.66666700  0.66666700  0.38213101  1
  O  O17  1  0.33164119  0.83530652  0.44298255  1
  O  O18  1  0.33333300  0.33333300  0.44340092  1
  O  O19  1  0.83530652  0.83305129  0.44298255  1
  O  O20  1  0.83305129  0.33164119  0.44298255  1
