# generated using pymatgen
data_Hf4Ge7(Te4O7)2
_symmetry_space_group_name_H-M   'P 1'
_cell_length_a   7.74593656
_cell_length_b   7.74593600
_cell_length_c   30.00000000
_cell_angle_alpha   90.00000000
_cell_angle_beta   90.00000000
_cell_angle_gamma   60.00000240
_symmetry_Int_Tables_number   1
_chemical_formula_structural   Hf4Ge7(Te4O7)2
_chemical_formula_sum   'Hf4 Ge7 Te8 O14'
_cell_volume   1558.83352394
_cell_formula_units_Z   1
loop_
 _symmetry_equiv_pos_site_id
 _symmetry_equiv_pos_as_xyz
  1  'x, y, z'
loop_
 _atom_site_type_symbol
 _atom_site_label
 _atom_site_symmetry_multiplicity
 _atom_site_fract_x
 _atom_site_fract_y
 _atom_site_fract_z
 _atom_site_occupancy
  Hf  Hf0  1  0.00000000  0.00000000  0.38417184  1
  Hf  Hf1  1  0.50059746  0.99994844  0.38372305  1
  Hf  Hf2  1  0.49945410  0.50059746  0.38372305  1
  Hf  Hf3  1  0.99994844  0.49945410  0.38372305  1
  Ge  Ge4  1  0.71438493  0.85703227  0.58882909  1
  Ge  Ge5  1  0.00000000  0.00000000  0.58939044  1
  Ge  Ge6  1  0.42858280  0.71438493  0.58882909  1
  Ge  Ge7  1  0.57137437  0.28567986  0.58877900  1
  Ge  Ge8  1  0.14294577  0.57137437  0.58877900  1
  Ge  Ge9  1  0.28567986  0.14294577  0.58877900  1
  Ge  Ge10  1  0.85703227  0.42858280  0.58882909  1
  Te  Te11  1  0.16579721  0.66570400  0.44529893  1
  Te  Te12  1  0.66666700  0.66666700  0.32205592  1
  Te  Te13  1  0.66712057  0.16660410  0.32215133  1
  Te  Te14  1  0.16627633  0.66712057  0.32215133  1
  Te  Te15  1  0.16660410  0.16627633  0.32215133  1
  Te  Te16  1  0.16849979  0.16579721  0.44529893  1
  Te  Te17  1  0.66666700  0.66666700  0.44537455  1
  Te  Te18  1  0.66570400  0.16849979  0.44529893  1
  O  O19  1  0.66666700  0.66666700  0.62139311  1
  O  O20  1  0.09536823  0.38104286  0.62138031  1
  O  O21  1  0.95253215  0.80877205  0.62163474  1
  O  O22  1  0.52358891  0.09536823  0.62138031  1
  O  O23  1  0.23869579  0.95253215  0.62163474  1
  O  O24  1  0.76281390  0.04686680  0.55640562  1
  O  O25  1  0.90496034  0.61904246  0.55606275  1
  O  O26  1  0.47599720  0.90496034  0.55606275  1
  O  O27  1  0.61904246  0.47599720  0.55606275  1
  O  O28  1  0.19031929  0.76281390  0.55640562  1
  O  O29  1  0.33333300  0.33333300  0.55594063  1
  O  O30  1  0.04686680  0.19031929  0.55640562  1
  O  O31  1  0.80877205  0.23869579  0.62163474  1
  O  O32  1  0.38104286  0.52358891  0.62138031  1
