# generated using pymatgen
data_Zr7Te14(MoS2)12
_symmetry_space_group_name_H-M   'P 1'
_cell_length_a   10.70078555
_cell_length_b   10.70078555
_cell_length_c   30.00000000
_cell_angle_alpha   90.00000000
_cell_angle_beta   90.00000000
_cell_angle_gamma   60.00000277
_symmetry_Int_Tables_number   1
_chemical_formula_structural   Zr7Te14(MoS2)12
_chemical_formula_sum   'Zr7 Te14 Mo12 S24'
_cell_volume   2974.97431144
_cell_formula_units_Z   1
loop_
 _symmetry_equiv_pos_site_id
 _symmetry_equiv_pos_as_xyz
  1  'x, y, z'
loop_
 _atom_site_type_symbol
 _atom_site_label
 _atom_site_symmetry_multiplicity
 _atom_site_fract_x
 _atom_site_fract_y
 _atom_site_fract_z
 _atom_site_occupancy
  Zr  Zr0  1  0.14296403  0.28524556  0.38062070  1
  Zr  Zr1  1  0.57179042  0.14296403  0.38062070  1
  Zr  Zr2  1  0.28524556  0.57179042  0.38062070  1
  Zr  Zr3  1  0.71454650  0.42882300  0.38223763  1
  Zr  Zr4  1  0.42882300  0.85663051  0.38223763  1
  Zr  Zr5  1  0.85663051  0.71454650  0.38223763  1
  Zr  Zr6  1  0.00000000  0.00000000  0.38357668  1
  Te  Te7  1  0.80861400  0.95285318  0.44270560  1
  Te  Te8  1  0.95193738  0.23703335  0.32091827  1
  Te  Te9  1  0.09487470  0.52403670  0.31997085  1
  Te  Te10  1  0.52403670  0.38108860  0.31997085  1
  Te  Te11  1  0.66666700  0.66666700  0.32091757  1
  Te  Te12  1  0.38108860  0.09487470  0.31997085  1
  Te  Te13  1  0.81102927  0.95193738  0.32091827  1
  Te  Te14  1  0.95285318  0.23853282  0.44270560  1
  Te  Te15  1  0.09382173  0.52337288  0.44151990  1
  Te  Te16  1  0.52337288  0.38280539  0.44151990  1
  Te  Te17  1  0.23853282  0.80861400  0.44270560  1
  Te  Te18  1  0.66666700  0.66666700  0.44286666  1
  Te  Te19  1  0.23703335  0.81102927  0.32091827  1
  Te  Te20  1  0.38280539  0.09382173  0.44151990  1
  Mo  Mo21  1  0.00000000  0.00000000  0.60875774  1
  Mo  Mo22  1  0.66668851  0.16644335  0.60947952  1
  Mo  Mo23  1  0.00004202  0.50033132  0.60946154  1
  Mo  Mo24  1  0.16644335  0.16686914  0.60947952  1
  Mo  Mo25  1  0.16686914  0.66668851  0.60947952  1
  Mo  Mo26  1  0.33333300  0.33333300  0.61042508  1
  Mo  Mo27  1  0.49962666  0.00004202  0.60946154  1
  Mo  Mo28  1  0.33328549  0.83322066  0.60890837  1
  Mo  Mo29  1  0.50033132  0.49962666  0.60946154  1
  Mo  Mo30  1  0.66666700  0.66666700  0.60869538  1
  Mo  Mo31  1  0.83349285  0.33328549  0.60890837  1
  Mo  Mo32  1  0.83322066  0.83349285  0.60890837  1
  S  S33  1  0.33282060  0.16822586  0.55697988  1
  S  S34  1  0.16822586  0.49895354  0.55697988  1
  S  S35  1  0.00077304  0.33392161  0.55617596  1
  S  S36  1  0.33392161  0.66530535  0.55617596  1
  S  S37  1  0.16677887  0.00079861  0.55579216  1
  S  S38  1  0.83421077  0.66634908  0.55570030  1
  S  S39  1  0.49895354  0.33282060  0.55697988  1
  S  S40  1  0.49944015  0.83421077  0.55570030  1
  S  S41  1  0.00079861  0.83242252  0.55579216  1
  S  S42  1  0.16644861  0.99939498  0.66218783  1
  S  S43  1  0.16566853  0.50119978  0.66307403  1
  S  S44  1  0.33313169  0.16566853  0.66307403  1
  S  S45  1  0.33365155  0.66706994  0.66247024  1
  S  S46  1  0.83242252  0.16677887  0.55579216  1
  S  S47  1  0.66530535  0.00077304  0.55617596  1
  S  S48  1  0.66706994  0.99927851  0.66247024  1
  S  S49  1  0.66745588  0.50015596  0.66215286  1
  S  S50  1  0.83415641  0.16644861  0.66218783  1
  S  S51  1  0.83238816  0.66745588  0.66215286  1
  S  S52  1  0.99927851  0.33365155  0.66247024  1
  S  S53  1  0.99939498  0.83415641  0.66218783  1
  S  S54  1  0.66634908  0.49944015  0.55570030  1
  S  S55  1  0.50015596  0.83238816  0.66215286  1
  S  S56  1  0.50119978  0.33313169  0.66307403  1
