# generated using pymatgen
data_Pt3W4(Se3S4)2
_symmetry_space_group_name_H-M   'P 1'
_cell_length_a   6.42987500
_cell_length_b   6.42987517
_cell_length_c   30.00000000
_cell_angle_alpha   90.00000000
_cell_angle_beta   90.00000000
_cell_angle_gamma   59.99999573
_symmetry_Int_Tables_number   1
_chemical_formula_structural   Pt3W4(Se3S4)2
_chemical_formula_sum   'Pt3 W4 Se6 S8'
_cell_volume   1074.13022987
_cell_formula_units_Z   1
loop_
 _symmetry_equiv_pos_site_id
 _symmetry_equiv_pos_as_xyz
  1  'x, y, z'
loop_
 _atom_site_type_symbol
 _atom_site_label
 _atom_site_symmetry_multiplicity
 _atom_site_fract_x
 _atom_site_fract_y
 _atom_site_fract_z
 _atom_site_occupancy
  Pt  Pt0  1  0.00000000  0.00000000  0.59564555  1
  Pt  Pt1  1  0.33333300  0.33333300  0.59582171  1
  Pt  Pt2  1  0.66666700  0.66666700  0.59720615  1
  W  W3  1  0.49919130  0.50094527  0.39357042  1
  W  W4  1  0.50094527  0.99986343  0.39357042  1
  W  W5  1  0.00000000  0.00000000  0.39354018  1
  W  W6  1  0.99986343  0.49919130  0.39357042  1
  Se  Se7  1  0.66694362  0.33010721  0.64054709  1
  Se  Se8  1  0.00294917  0.66694362  0.64054709  1
  Se  Se9  1  0.66629345  0.99595559  0.55225139  1
  Se  Se10  1  0.33775095  0.66629345  0.55225139  1
  Se  Se11  1  0.99595559  0.33775095  0.55225139  1
  Se  Se12  1  0.33010721  0.00294917  0.64054709  1
  S  S13  1  0.66656591  0.16860581  0.44528531  1
  S  S14  1  0.16748690  0.16587042  0.34162976  1
  S  S15  1  0.16587042  0.66664368  0.34162976  1
  S  S16  1  0.66664368  0.16748690  0.34162976  1
  S  S17  1  0.66666700  0.66666700  0.34169268  1
  S  S18  1  0.16860581  0.16482928  0.44528531  1
  S  S19  1  0.16482928  0.66656591  0.44528531  1
  S  S20  1  0.66666700  0.66666700  0.44560781  1
