# generated using pymatgen
data_Cr4Ni3(Se3S4)2
_symmetry_space_group_name_H-M   'P 1'
_cell_length_a   6.11248586
_cell_length_b   6.11248586
_cell_length_c   30.00000000
_cell_angle_alpha   90.00000000
_cell_angle_beta   90.00000000
_cell_angle_gamma   60.00000146
_symmetry_Int_Tables_number   1
_chemical_formula_structural   Cr4Ni3(Se3S4)2
_chemical_formula_sum   'Cr4 Ni3 Se6 S8'
_cell_volume   970.70580870
_cell_formula_units_Z   1
loop_
 _symmetry_equiv_pos_site_id
 _symmetry_equiv_pos_as_xyz
  1  'x, y, z'
loop_
 _atom_site_type_symbol
 _atom_site_label
 _atom_site_symmetry_multiplicity
 _atom_site_fract_x
 _atom_site_fract_y
 _atom_site_fract_z
 _atom_site_occupancy
  Cr  Cr0  1  0.99978040  0.50087858  0.39629300  1
  Cr  Cr1  1  0.50087858  0.49934102  0.39629300  1
  Cr  Cr2  1  0.49934102  0.99978040  0.39629300  1
  Cr  Cr3  1  0.00000000  0.00000000  0.39633274  1
  Ni  Ni4  1  0.00000000  0.00000000  0.59422807  1
  Ni  Ni5  1  0.66666700  0.66666700  0.59566055  1
  Ni  Ni6  1  0.33333300  0.33333300  0.59431858  1
  Se  Se7  1  0.99615905  0.66654959  0.55353671  1
  Se  Se8  1  0.33076030  0.66670621  0.63628189  1
  Se  Se9  1  0.66670621  0.00253349  0.63628189  1
  Se  Se10  1  0.00253349  0.33076030  0.63628189  1
  Se  Se11  1  0.33729136  0.99615905  0.55353671  1
  Se  Se12  1  0.66654959  0.33729136  0.55353671  1
  S  S13  1  0.66642146  0.16524030  0.44488620  1
  S  S14  1  0.16606404  0.16718733  0.34758450  1
  S  S15  1  0.16718733  0.66674963  0.34758450  1
  S  S16  1  0.66674963  0.16606404  0.34758450  1
  S  S17  1  0.66666700  0.66666700  0.34756769  1
  S  S18  1  0.16524030  0.16833924  0.44488620  1
  S  S19  1  0.16833924  0.66642146  0.44488620  1
  S  S20  1  0.66666700  0.66666700  0.44514946  1
