# generated using pymatgen
data_HfZr(TeS)2
_symmetry_space_group_name_H-M   'P 1'
_cell_length_a   6.47867017
_cell_length_b   6.47867017
_cell_length_c   30.00000000
_cell_angle_alpha   90.00000000
_cell_angle_beta   90.00000000
_cell_angle_gamma   59.99999826
_symmetry_Int_Tables_number   1
_chemical_formula_structural   HfZr(TeS)2
_chemical_formula_sum   'Hf3 Zr3 Te6 S6'
_cell_volume   1090.49485255
_cell_formula_units_Z   3
loop_
 _symmetry_equiv_pos_site_id
 _symmetry_equiv_pos_as_xyz
  1  'x, y, z'
loop_
 _atom_site_type_symbol
 _atom_site_label
 _atom_site_symmetry_multiplicity
 _atom_site_fract_x
 _atom_site_fract_y
 _atom_site_fract_z
 _atom_site_occupancy
  Hf  Hf0  1  0.00000000  0.00000000  0.61196374  1
  Hf  Hf1  1  0.33333300  0.33333300  0.61196374  1
  Hf  Hf2  1  0.66666700  0.66666700  0.61196374  1
  Zr  Zr3  1  0.66666700  0.66666700  0.39668694  1
  Zr  Zr4  1  0.33333300  0.33333300  0.39668694  1
  Zr  Zr5  1  0.00000000  0.00000000  0.39668694  1
  Te  Te6  1  0.66666700  0.33333300  0.67581398  1
  Te  Te7  1  0.00000000  0.66666700  0.67581398  1
  Te  Te8  1  0.00000000  0.66666700  0.54930907  1
  Te  Te9  1  0.66666700  0.33333300  0.54930907  1
  Te  Te10  1  0.33333300  0.00000000  0.54930907  1
  Te  Te11  1  0.33333300  0.00000000  0.67581398  1
  S  S12  1  0.33333300  0.66666700  0.44799103  1
  S  S13  1  0.00000000  0.33333300  0.34616124  1
  S  S14  1  0.33333300  0.66666700  0.34616124  1
  S  S15  1  0.66666700  0.00000000  0.34616124  1
  S  S16  1  0.00000000  0.33333300  0.44799103  1
  S  S17  1  0.66666700  0.00000000  0.44799103  1
