# generated using pymatgen
data_Cr3Ni4(Se3O4)2
_symmetry_space_group_name_H-M   'P 1'
_cell_length_a   5.61582962
_cell_length_b   5.61583000
_cell_length_c   30.00000000
_cell_angle_alpha   90.00000000
_cell_angle_beta   90.00000000
_cell_angle_gamma   59.99999774
_symmetry_Int_Tables_number   1
_chemical_formula_structural   Cr3Ni4(Se3O4)2
_chemical_formula_sum   'Cr3 Ni4 Se6 O8'
_cell_volume   819.36942088
_cell_formula_units_Z   1
loop_
 _symmetry_equiv_pos_site_id
 _symmetry_equiv_pos_as_xyz
  1  'x, y, z'
loop_
 _atom_site_type_symbol
 _atom_site_label
 _atom_site_symmetry_multiplicity
 _atom_site_fract_x
 _atom_site_fract_y
 _atom_site_fract_z
 _atom_site_occupancy
  Cr  Cr0  1  0.66665627  0.66669157  0.40225260  1
  Cr  Cr1  1  0.33334747  0.33330818  0.40276962  1
  Cr  Cr2  1  0.00013077  0.00000030  0.40269993  1
  Ni  Ni3  1  0.00000054  0.99999900  0.58018502  1
  Ni  Ni4  1  0.99978038  0.50030814  0.58022510  1
  Ni  Ni5  1  0.49991167  0.99978024  0.58022506  1
  Ni  Ni6  1  0.50030713  0.49991235  0.58022511  1
  Se  Se7  1  0.33476838  0.99837481  0.45426792  1
  Se  Se8  1  0.00081467  0.66656495  0.35069343  1
  Se  Se9  1  0.66657651  0.33263201  0.35069353  1
  Se  Se10  1  0.33269154  0.00080303  0.35068411  1
  Se  Se11  1  0.99838654  0.66691744  0.45425863  1
  Se  Se12  1  0.66692800  0.33470752  0.45425870  1
  O  O13  1  0.33333545  0.33333200  0.61193201  1
  O  O14  1  0.33291992  0.83275781  0.61201804  1
  O  O15  1  0.66666452  0.66666902  0.54814169  1
  O  O16  1  0.66645679  0.16563699  0.54820330  1
  O  O17  1  0.16790687  0.66645797  0.54820547  1
  O  O18  1  0.16563935  0.16790378  0.54820438  1
  O  O19  1  0.83432064  0.33291875  0.61201565  1
  O  O20  1  0.83275660  0.83432414  0.61201672  1
