# generated using pymatgen
data_Cr7Te8(Pd2S7)2
_symmetry_space_group_name_H-M   'P 1'
_cell_length_a   8.04642444
_cell_length_b   8.04642509
_cell_length_c   30.00000000
_cell_angle_alpha   90.00000000
_cell_angle_beta   90.00000000
_cell_angle_gamma   60.00000103
_symmetry_Int_Tables_number   1
_chemical_formula_structural   Cr7Te8(Pd2S7)2
_chemical_formula_sum   'Cr7 Te8 Pd4 S14'
_cell_volume   1682.12320098
_cell_formula_units_Z   1
loop_
 _symmetry_equiv_pos_site_id
 _symmetry_equiv_pos_as_xyz
  1  'x, y, z'
loop_
 _atom_site_type_symbol
 _atom_site_label
 _atom_site_symmetry_multiplicity
 _atom_site_fract_x
 _atom_site_fract_y
 _atom_site_fract_z
 _atom_site_occupancy
  Cr  Cr0  1  0.42904129  0.71433038  0.39541271  1
  Cr  Cr1  1  0.71433038  0.85662834  0.39541271  1
  Cr  Cr2  1  0.85662834  0.42904129  0.39541271  1
  Cr  Cr3  1  0.57142837  0.28523683  0.39553629  1
  Cr  Cr4  1  0.00000000  0.00000000  0.39471625  1
  Cr  Cr5  1  0.28523683  0.14333480  0.39553629  1
  Cr  Cr6  1  0.14333480  0.57142837  0.39553629  1
  Te  Te7  1  0.17219969  0.16459672  0.55369380  1
  Te  Te8  1  0.16459672  0.66320459  0.55369380  1
  Te  Te9  1  0.66320459  0.17219969  0.55369380  1
  Te  Te10  1  0.66666700  0.66666700  0.55367138  1
  Te  Te11  1  0.33080901  0.83771678  0.64518697  1
  Te  Te12  1  0.33333300  0.33333300  0.64555752  1
  Te  Te13  1  0.83771678  0.83147321  0.64518697  1
  Te  Te14  1  0.83147321  0.33080901  0.64518697  1
  Pd  Pd15  1  0.00000000  0.00000000  0.59803800  1
  Pd  Pd16  1  0.50271040  0.99996408  0.59953809  1
  Pd  Pd17  1  0.99996408  0.49732553  0.59953809  1
  Pd  Pd18  1  0.49732553  0.50271040  0.59953809  1
  S  S19  1  0.90555091  0.61870145  0.44439406  1
  S  S20  1  0.47574764  0.90555091  0.44439406  1
  S  S21  1  0.61870145  0.47574764  0.44439406  1
  S  S22  1  0.19056038  0.76376908  0.44369654  1
  S  S23  1  0.33333300  0.33333300  0.44455326  1
  S  S24  1  0.04567055  0.19056038  0.44369654  1
  S  S25  1  0.90508286  0.61898167  0.34663737  1
  S  S26  1  0.47593547  0.90508286  0.34663737  1
  S  S27  1  0.61898167  0.47593547  0.34663737  1
  S  S28  1  0.19152388  0.76092403  0.34632059  1
  S  S29  1  0.33333300  0.33333300  0.34670037  1
  S  S30  1  0.04755209  0.19152388  0.34632059  1
  S  S31  1  0.76092403  0.04755209  0.34632059  1
  S  S32  1  0.76376908  0.04567055  0.44369654  1
