# generated using pymatgen
data_PdPtSe4
_symmetry_space_group_name_H-M   'P 1'
_cell_length_a   3.73841134
_cell_length_b   3.73841200
_cell_length_c   30.00000000
_cell_angle_alpha   90.00000000
_cell_angle_beta   90.00000000
_cell_angle_gamma   59.99999416
_symmetry_Int_Tables_number   1
_chemical_formula_structural   PdPtSe4
_chemical_formula_sum   'Pd1 Pt1 Se4'
_cell_volume   363.09988249
_cell_formula_units_Z   1
loop_
 _symmetry_equiv_pos_site_id
 _symmetry_equiv_pos_as_xyz
  1  'x, y, z'
loop_
 _atom_site_type_symbol
 _atom_site_label
 _atom_site_symmetry_multiplicity
 _atom_site_fract_x
 _atom_site_fract_y
 _atom_site_fract_z
 _atom_site_occupancy
  Pd  Pd0  1  0.00000000  0.00000000  0.57997342  1
  Pt  Pt1  1  0.00000000  0.00000000  0.42000197  1
  Se  Se2  1  0.33333300  0.33333300  0.53715560  1
  Se  Se3  1  0.66666700  0.66666700  0.62435719  1
  Se  Se4  1  0.33333300  0.33333300  0.37571855  1
  Se  Se5  1  0.66666700  0.66666700  0.46314827  1
