# generated using pymatgen
data_Te14Mo19O24
_symmetry_space_group_name_H-M   'P 1'
_cell_length_a   9.57546900
_cell_length_b   9.57546840
_cell_length_c   30.00000000
_cell_angle_alpha   90.00000000
_cell_angle_beta   90.00000000
_cell_angle_gamma   60.00000137
_symmetry_Int_Tables_number   1
_chemical_formula_structural   Te14Mo19O24
_chemical_formula_sum   'Te14 Mo19 O24'
_cell_volume   2382.16573962
_cell_formula_units_Z   1
loop_
 _symmetry_equiv_pos_site_id
 _symmetry_equiv_pos_as_xyz
  1  'x, y, z'
loop_
 _atom_site_type_symbol
 _atom_site_label
 _atom_site_symmetry_multiplicity
 _atom_site_fract_x
 _atom_site_fract_y
 _atom_site_fract_z
 _atom_site_occupancy
  Te  Te0  1  0.09400937  0.38183170  0.44862843  1
  Te  Te1  1  0.23785580  0.95275616  0.33054634  1
  Te  Te2  1  0.38128851  0.52371244  0.33067031  1
  Te  Te3  1  0.66666700  0.66666700  0.33044468  1
  Te  Te4  1  0.80938804  0.23785580  0.33054634  1
  Te  Te5  1  0.95275616  0.80938804  0.33054634  1
  Te  Te6  1  0.52371244  0.09499905  0.33067031  1
  Te  Te7  1  0.23771829  0.95247575  0.44888745  1
  Te  Te8  1  0.38183170  0.52415893  0.44862843  1
  Te  Te9  1  0.52415893  0.09400937  0.44862843  1
  Te  Te10  1  0.66666700  0.66666700  0.44885557  1
  Te  Te11  1  0.80980596  0.23771829  0.44888745  1
  Te  Te12  1  0.09499905  0.38128851  0.33067031  1
  Te  Te13  1  0.95247575  0.80980596  0.44888745  1
  Mo  Mo14  1  0.00000000  0.00000000  0.38976849  1
  Mo  Mo15  1  0.85637828  0.42870904  0.38970045  1
  Mo  Mo16  1  0.71491268  0.85637828  0.38970045  1
  Mo  Mo17  1  0.57182964  0.28523314  0.38982909  1
  Mo  Mo18  1  0.42870904  0.71491268  0.38970045  1
  Mo  Mo19  1  0.28523314  0.14293722  0.38982909  1
  Mo  Mo20  1  0.14293722  0.57182964  0.38982909  1
  Mo  Mo21  1  0.00000000  0.00000000  0.59402793  1
  Mo  Mo22  1  0.83331301  0.33332186  0.59415754  1
  Mo  Mo23  1  0.16681785  0.16654866  0.59454096  1
  Mo  Mo24  1  0.50013280  0.00006391  0.59455166  1
  Mo  Mo25  1  0.00006391  0.49980329  0.59455166  1
  Mo  Mo26  1  0.33333300  0.33333300  0.59521256  1
  Mo  Mo27  1  0.66663449  0.16681785  0.59454096  1
  Mo  Mo28  1  0.16654866  0.66663449  0.59454096  1
  Mo  Mo29  1  0.49980329  0.50013280  0.59455166  1
  Mo  Mo30  1  0.33332186  0.83336413  0.59415754  1
  Mo  Mo31  1  0.66666700  0.66666700  0.59403520  1
  Mo  Mo32  1  0.83336413  0.83331301  0.59415754  1
  O  O33  1  0.49917135  0.16782792  0.55297433  1
  O  O34  1  0.16782792  0.33300074  0.55297433  1
  O  O35  1  0.66638642  0.83398842  0.55219747  1
  O  O36  1  0.00062206  0.66564359  0.55246143  1
  O  O37  1  0.00056551  0.16679747  0.55223116  1
  O  O38  1  0.33373435  0.00062206  0.55246143  1
  O  O39  1  0.33300074  0.49917135  0.55297433  1
  O  O40  1  0.16679747  0.83263703  0.55223116  1
  O  O41  1  0.83263703  0.00056551  0.55223116  1
  O  O42  1  0.99965013  0.16642105  0.63602824  1
  O  O43  1  0.16592585  0.33318589  0.63669419  1
  O  O44  1  0.50088826  0.16592585  0.63669419  1
  O  O45  1  0.99936969  0.66713836  0.63624183  1
  O  O46  1  0.83398842  0.49962516  0.55219747  1
  O  O47  1  0.66564359  0.33373435  0.55246143  1
  O  O48  1  0.66713836  0.33349195  0.63624183  1
  O  O49  1  0.50010635  0.66715415  0.63602732  1
  O  O50  1  0.83273950  0.50010635  0.63602732  1
  O  O51  1  0.33349195  0.99936969  0.63624183  1
  O  O52  1  0.66715415  0.83273950  0.63602732  1
  O  O53  1  0.83392882  0.99965013  0.63602824  1
  O  O54  1  0.49962516  0.66638642  0.55219747  1
  O  O55  1  0.16642105  0.83392882  0.63602824  1
  O  O56  1  0.33318589  0.50088826  0.63669419  1
