# generated using pymatgen
data_TiSn(SeO)2
_symmetry_space_group_name_H-M   'P 1'
_cell_length_a   5.81661200
_cell_length_b   5.81661221
_cell_length_c   30.00000000
_cell_angle_alpha   90.00000000
_cell_angle_beta   90.00000000
_cell_angle_gamma   60.00000120
_symmetry_Int_Tables_number   1
_chemical_formula_structural   TiSn(SeO)2
_chemical_formula_sum   'Ti3 Sn3 Se6 O6'
_cell_volume   879.00652177
_cell_formula_units_Z   3
loop_
 _symmetry_equiv_pos_site_id
 _symmetry_equiv_pos_as_xyz
  1  'x, y, z'
loop_
 _atom_site_type_symbol
 _atom_site_label
 _atom_site_symmetry_multiplicity
 _atom_site_fract_x
 _atom_site_fract_y
 _atom_site_fract_z
 _atom_site_occupancy
  Ti  Ti0  1  0.66666700  0.66666700  0.39135207  1
  Ti  Ti1  1  0.33333300  0.33333300  0.39135207  1
  Ti  Ti2  1  0.00000000  0.00000000  0.39135207  1
  Sn  Sn3  1  0.00000000  0.00000000  0.58821224  1
  Sn  Sn4  1  0.33333300  0.33333300  0.58821224  1
  Sn  Sn5  1  0.66666700  0.66666700  0.58821224  1
  Se  Se6  1  0.00000000  0.33333300  0.44626783  1
  Se  Se7  1  0.66666700  0.00000000  0.33611552  1
  Se  Se8  1  0.33333300  0.66666700  0.33611552  1
  Se  Se9  1  0.00000000  0.33333300  0.33611552  1
  Se  Se10  1  0.66666700  0.00000000  0.44626783  1
  Se  Se11  1  0.33333300  0.66666700  0.44626783  1
  O  O12  1  0.66666700  0.33333300  0.61989565  1
  O  O13  1  0.33333300  0.00000000  0.61989565  1
  O  O14  1  0.66666700  0.00000000  0.55625770  1
  O  O15  1  0.33333300  0.66666700  0.55625770  1
  O  O16  1  0.00000000  0.33333300  0.55625770  1
  O  O17  1  0.00000000  0.66666700  0.61989565  1
