# generated using pymatgen
data_Ti3Cr4(Te3S4)2
_symmetry_space_group_name_H-M   'P 1'
_cell_length_a   6.28187300
_cell_length_b   6.28187223
_cell_length_c   30.00000000
_cell_angle_alpha   90.00000000
_cell_angle_beta   90.00000000
_cell_angle_gamma   60.00000121
_symmetry_Int_Tables_number   1
_chemical_formula_structural   Ti3Cr4(Te3S4)2
_chemical_formula_sum   'Ti3 Cr4 Te6 S8'
_cell_volume   1025.25086067
_cell_formula_units_Z   1
loop_
 _symmetry_equiv_pos_site_id
 _symmetry_equiv_pos_as_xyz
  1  'x, y, z'
loop_
 _atom_site_type_symbol
 _atom_site_label
 _atom_site_symmetry_multiplicity
 _atom_site_fract_x
 _atom_site_fract_y
 _atom_site_fract_z
 _atom_site_occupancy
  Ti  Ti0  1  0.66666700  0.66666700  0.38236689  1
  Ti  Ti1  1  0.33333300  0.33333300  0.38451262  1
  Ti  Ti2  1  0.00000000  0.00000000  0.38489222  1
  Cr  Cr3  1  0.00000000  0.00000000  0.60616999  1
  Cr  Cr4  1  0.99983751  0.49914922  0.60618142  1
  Cr  Cr5  1  0.50101327  0.99983751  0.60618142  1
  Cr  Cr6  1  0.49914922  0.50101327  0.60618142  1
  Te  Te7  1  0.99694677  0.33680094  0.44413711  1
  Te  Te8  1  0.66698902  0.00204038  0.32291453  1
  Te  Te9  1  0.33097061  0.66698902  0.32291453  1
  Te  Te10  1  0.00204038  0.33097061  0.32291453  1
  Te  Te11  1  0.66625229  0.99694677  0.44413711  1
  Te  Te12  1  0.33680094  0.66625229  0.44413711  1
  S  S13  1  0.16598089  0.66672579  0.65418599  1
  S  S14  1  0.16729432  0.16598089  0.65418599  1
  S  S15  1  0.66666700  0.66666700  0.55807588  1
  S  S16  1  0.66648550  0.16849040  0.55837907  1
  S  S17  1  0.16502510  0.66648550  0.55837907  1
  S  S18  1  0.16849040  0.16502510  0.55837907  1
  S  S19  1  0.66666700  0.66666700  0.65418300  1
  S  S20  1  0.66672579  0.16729432  0.65418599  1
