# generated using pymatgen
data_Ti3(Cr2S7)2
_symmetry_space_group_name_H-M   'P 1'
_cell_length_a   6.00310884
_cell_length_b   6.00310900
_cell_length_c   30.00000000
_cell_angle_alpha   90.00000000
_cell_angle_beta   90.00000000
_cell_angle_gamma   60.00000463
_symmetry_Int_Tables_number   1
_chemical_formula_structural   Ti3(Cr2S7)2
_chemical_formula_sum   'Ti3 Cr4 S14'
_cell_volume   936.27699627
_cell_formula_units_Z   1
loop_
 _symmetry_equiv_pos_site_id
 _symmetry_equiv_pos_as_xyz
  1  'x, y, z'
loop_
 _atom_site_type_symbol
 _atom_site_label
 _atom_site_symmetry_multiplicity
 _atom_site_fract_x
 _atom_site_fract_y
 _atom_site_fract_z
 _atom_site_occupancy
  Ti  Ti0  1  0.00000000  0.00000000  0.59964497  1
  Ti  Ti1  1  0.33333300  0.33333300  0.60022561  1
  Ti  Ti2  1  0.66666700  0.66666700  0.60222613  1
  Cr  Cr3  1  0.50064670  0.49949510  0.39624366  1
  Cr  Cr4  1  0.49949510  0.99985821  0.39624366  1
  Cr  Cr5  1  0.00000000  0.00000000  0.39623039  1
  Cr  Cr6  1  0.99985821  0.50064670  0.39624366  1
  S  S7  1  0.66698889  0.00144259  0.64731622  1
  S  S8  1  0.00144259  0.33156851  0.64731622  1
  S  S9  1  0.99813910  0.66632154  0.55437359  1
  S  S10  1  0.66656250  0.16558522  0.44534689  1
  S  S11  1  0.66632154  0.33553936  0.55437359  1
  S  S12  1  0.33553936  0.99813910  0.55437359  1
  S  S13  1  0.16623719  0.16711650  0.34697872  1
  S  S14  1  0.16711650  0.66664730  0.34697872  1
  S  S15  1  0.66664730  0.16623719  0.34697872  1
  S  S16  1  0.66666700  0.66666700  0.34700478  1
  S  S17  1  0.16558522  0.16785327  0.44534689  1
  S  S18  1  0.16785327  0.66656250  0.44534689  1
  S  S19  1  0.33156851  0.66698889  0.64731622  1
  S  S20  1  0.66666700  0.66666700  0.44554487  1
