# generated using pymatgen
data_Mo7Pt4(Se4O7)2
_symmetry_space_group_name_H-M   'P 1'
_cell_length_a   7.47504710
_cell_length_b   7.47504700
_cell_length_c   30.00000000
_cell_angle_alpha   90.00000000
_cell_angle_beta   90.00000000
_cell_angle_gamma   60.00000487
_symmetry_Int_Tables_number   1
_chemical_formula_structural   Mo7Pt4(Se4O7)2
_chemical_formula_sum   'Mo7 Pt4 Se8 O14'
_cell_volume   1451.70966700
_cell_formula_units_Z   1
loop_
 _symmetry_equiv_pos_site_id
 _symmetry_equiv_pos_as_xyz
  1  'x, y, z'
loop_
 _atom_site_type_symbol
 _atom_site_label
 _atom_site_symmetry_multiplicity
 _atom_site_fract_x
 _atom_site_fract_y
 _atom_site_fract_z
 _atom_site_occupancy
  Mo  Mo0  1  0.71409000  0.42863934  0.40729509  1
  Mo  Mo1  1  0.85727066  0.71409000  0.40729509  1
  Mo  Mo2  1  0.42863934  0.85727066  0.40729509  1
  Mo  Mo3  1  0.28560776  0.57157071  0.40752776  1
  Mo  Mo4  1  0.57157071  0.14282153  0.40752776  1
  Mo  Mo5  1  0.14282153  0.28560776  0.40752776  1
  Mo  Mo6  1  0.00000000  0.00000000  0.40760295  1
  Pt  Pt7  1  0.00000000  0.00000000  0.59004300  1
  Pt  Pt8  1  0.49978853  0.49999493  0.59042074  1
  Pt  Pt9  1  0.49999493  0.00021654  0.59042074  1
  Pt  Pt10  1  0.00021654  0.49978853  0.59042074  1
  Se  Se11  1  0.33263588  0.83383348  0.63413636  1
  Se  Se12  1  0.33333300  0.33333300  0.63427849  1
  Se  Se13  1  0.83383348  0.83352964  0.63413636  1
  Se  Se14  1  0.83352964  0.33263588  0.63413636  1
  Se  Se15  1  0.66612836  0.16720782  0.54672551  1
  Se  Se16  1  0.16666482  0.66612836  0.54672551  1
  Se  Se17  1  0.16720782  0.16666482  0.54672551  1
  Se  Se18  1  0.66666700  0.66666700  0.54734470  1
  O  O19  1  0.09490106  0.52353343  0.44875972  1
  O  O20  1  0.52353343  0.38156551  0.44875972  1
  O  O21  1  0.66666700  0.66666700  0.44831839  1
  O  O22  1  0.95149492  0.23872220  0.44878806  1
  O  O23  1  0.23872220  0.80978288  0.44878806  1
  O  O24  1  0.80974813  0.95256809  0.36629448  1
  O  O25  1  0.09558505  0.52347332  0.36626636  1
  O  O26  1  0.66666700  0.66666700  0.36600722  1
  O  O27  1  0.23768379  0.80974813  0.36629448  1
  O  O28  1  0.52347332  0.38094163  0.36626636  1
  O  O29  1  0.95256809  0.23768379  0.36629448  1
  O  O30  1  0.38156551  0.09490106  0.44875972  1
  O  O31  1  0.38094163  0.09558505  0.36626636  1
  O  O32  1  0.80978288  0.95149492  0.44878806  1
