# generated using pymatgen
data_Te8Pd4(PtO2)7
_symmetry_space_group_name_H-M   'P 1'
_cell_length_a   8.17503197
_cell_length_b   8.17503268
_cell_length_c   30.00000000
_cell_angle_alpha   90.00000000
_cell_angle_beta   90.00000000
_cell_angle_gamma   60.00000304
_symmetry_Int_Tables_number   1
_chemical_formula_structural   Te8Pd4(PtO2)7
_chemical_formula_sum   'Te8 Pd4 Pt7 O14'
_cell_volume   1736.32435566
_cell_formula_units_Z   1
loop_
 _symmetry_equiv_pos_site_id
 _symmetry_equiv_pos_as_xyz
  1  'x, y, z'
loop_
 _atom_site_type_symbol
 _atom_site_label
 _atom_site_symmetry_multiplicity
 _atom_site_fract_x
 _atom_site_fract_y
 _atom_site_fract_z
 _atom_site_occupancy
  Te  Te0  1  0.16470679  0.16804952  0.54558065  1
  Te  Te1  1  0.16804952  0.66724469  0.54558065  1
  Te  Te2  1  0.66724469  0.16470679  0.54558065  1
  Te  Te3  1  0.66666700  0.66666700  0.54690465  1
  Te  Te4  1  0.33310675  0.83241463  0.63479626  1
  Te  Te5  1  0.33333300  0.33333300  0.63529646  1
  Te  Te6  1  0.83241463  0.83447762  0.63479626  1
  Te  Te7  1  0.83447762  0.33310675  0.63479626  1
  Pd  Pd8  1  0.00000000  0.00000000  0.58995092  1
  Pd  Pd9  1  0.00083777  0.50050622  0.59014506  1
  Pd  Pd10  1  0.49865601  0.00083777  0.59014506  1
  Pd  Pd11  1  0.50050622  0.49865601  0.59014506  1
  Pt  Pt12  1  0.71431577  0.85765461  0.41769153  1
  Pt  Pt13  1  0.85765461  0.42802961  0.41769153  1
  Pt  Pt14  1  0.57150582  0.28592028  0.41798141  1
  Pt  Pt15  1  0.42802961  0.71431577  0.41769153  1
  Pt  Pt16  1  0.28592028  0.14257390  0.41798141  1
  Pt  Pt17  1  0.00000000  0.00000000  0.41827426  1
  Pt  Pt18  1  0.14257390  0.57150582  0.41798141  1
  O  O19  1  0.09522244  0.38102720  0.45096838  1
  O  O20  1  0.66666700  0.66666700  0.45045306  1
  O  O21  1  0.80989386  0.23877498  0.45115620  1
  O  O22  1  0.38102720  0.52375035  0.45096838  1
  O  O23  1  0.52375035  0.09522244  0.45096838  1
  O  O24  1  0.23877498  0.95133116  0.45115620  1
  O  O25  1  0.90532437  0.61934269  0.38486436  1
  O  O26  1  0.47533294  0.90532437  0.38486436  1
  O  O27  1  0.61934269  0.47533294  0.38486436  1
  O  O28  1  0.18890107  0.76306638  0.38501498  1
  O  O29  1  0.33333300  0.33333300  0.38500516  1
  O  O30  1  0.04803256  0.18890107  0.38501498  1
  O  O31  1  0.76306638  0.04803256  0.38501498  1
  O  O32  1  0.95133116  0.80989386  0.45115620  1
