# generated using pymatgen
data_Zr4Pd3(Se3O4)2
_symmetry_space_group_name_H-M   'P 1'
_cell_length_a   6.49572846
_cell_length_b   6.49572800
_cell_length_c   30.00000000
_cell_angle_alpha   90.00000000
_cell_angle_beta   90.00000000
_cell_angle_gamma   60.00000236
_symmetry_Int_Tables_number   1
_chemical_formula_structural   Zr4Pd3(Se3O4)2
_chemical_formula_sum   'Zr4 Pd3 Se6 O8'
_cell_volume   1096.24491028
_cell_formula_units_Z   1
loop_
 _symmetry_equiv_pos_site_id
 _symmetry_equiv_pos_as_xyz
  1  'x, y, z'
loop_
 _atom_site_type_symbol
 _atom_site_label
 _atom_site_symmetry_multiplicity
 _atom_site_fract_x
 _atom_site_fract_y
 _atom_site_fract_z
 _atom_site_occupancy
  Zr  Zr0  1  0.00012034  0.49997533  0.41518148  1
  Zr  Zr1  1  0.49997533  0.49990433  0.41518148  1
  Zr  Zr2  1  0.49990433  0.00012034  0.41518148  1
  Zr  Zr3  1  0.00000000  0.00000000  0.41436834  1
  Pd  Pd4  1  0.00000000  0.00000000  0.59447928  1
  Pd  Pd5  1  0.66666700  0.66666700  0.59463395  1
  Pd  Pd6  1  0.33333300  0.33333300  0.59551615  1
  Se  Se7  1  0.00264606  0.66355181  0.55175442  1
  Se  Se8  1  0.33295427  0.66885686  0.63829280  1
  Se  Se9  1  0.66885686  0.99818887  0.63829280  1
  Se  Se10  1  0.99818887  0.33295427  0.63829280  1
  Se  Se11  1  0.33380213  0.00264606  0.55175442  1
  Se  Se12  1  0.66355181  0.33380213  0.55175442  1
  O  O13  1  0.83297298  0.83480874  0.44735381  1
  O  O14  1  0.16716059  0.16720297  0.38227477  1
  O  O15  1  0.16720297  0.66563743  0.38227477  1
  O  O16  1  0.66563743  0.16716059  0.38227477  1
  O  O17  1  0.66666700  0.66666700  0.38257593  1
  O  O18  1  0.33221729  0.83297298  0.44735381  1
  O  O19  1  0.33333300  0.33333300  0.44774148  1
  O  O20  1  0.83480874  0.33221729  0.44735381  1
