# generated using pymatgen
data_Ge7Pd4(Se4O7)2
_symmetry_space_group_name_H-M   'P 1'
_cell_length_a   7.56743342
_cell_length_b   7.56743340
_cell_length_c   30.00000000
_cell_angle_alpha   90.00000000
_cell_angle_beta   90.00000000
_cell_angle_gamma   60.00000445
_symmetry_Int_Tables_number   1
_chemical_formula_structural   Ge7Pd4(Se4O7)2
_chemical_formula_sum   'Ge7 Pd4 Se8 O14'
_cell_volume   1487.81564739
_cell_formula_units_Z   1
loop_
 _symmetry_equiv_pos_site_id
 _symmetry_equiv_pos_as_xyz
  1  'x, y, z'
loop_
 _atom_site_type_symbol
 _atom_site_label
 _atom_site_symmetry_multiplicity
 _atom_site_fract_x
 _atom_site_fract_y
 _atom_site_fract_z
 _atom_site_occupancy
  Ge  Ge0  1  0.00000000  0.00000000  0.58686555  1
  Ge  Ge1  1  0.14298104  0.28562838  0.58620769  1
  Ge  Ge2  1  0.57139059  0.14298104  0.58620769  1
  Ge  Ge3  1  0.28562838  0.57139059  0.58620769  1
  Ge  Ge4  1  0.71432938  0.42861852  0.58611762  1
  Ge  Ge5  1  0.42861852  0.85705211  0.58611762  1
  Ge  Ge6  1  0.85705211  0.71432938  0.58611762  1
  Pd  Pd7  1  0.50042903  0.00003665  0.40619754  1
  Pd  Pd8  1  0.49953432  0.50042903  0.40619754  1
  Pd  Pd9  1  0.00000000  0.00000000  0.40640710  1
  Pd  Pd10  1  0.00003665  0.49953432  0.40619754  1
  Se  Se11  1  0.66703513  0.16705965  0.36345360  1
  Se  Se12  1  0.16590622  0.66703513  0.36345360  1
  Se  Se13  1  0.16705965  0.16590622  0.36345360  1
  Se  Se14  1  0.33333300  0.33333300  0.44886895  1
  Se  Se15  1  0.66666700  0.66666700  0.36341511  1
  Se  Se16  1  0.33422200  0.83389357  0.44867525  1
  Se  Se17  1  0.83188343  0.33422200  0.44867525  1
  Se  Se18  1  0.83389357  0.83188343  0.44867525  1
  O  O19  1  0.90460788  0.47639961  0.61958400  1
  O  O20  1  0.61899251  0.90460788  0.61958400  1
  O  O21  1  0.04753821  0.76119725  0.61988146  1
  O  O22  1  0.33333300  0.33333300  0.61961640  1
  O  O23  1  0.19126454  0.04753821  0.61988146  1
  O  O24  1  0.80979318  0.95312699  0.55296481  1
  O  O25  1  0.38092245  0.09510080  0.55260140  1
  O  O26  1  0.66666700  0.66666700  0.55246577  1
  O  O27  1  0.23707983  0.80979318  0.55296481  1
  O  O28  1  0.52397674  0.38092245  0.55260140  1
  O  O29  1  0.09510080  0.52397674  0.55260140  1
  O  O30  1  0.95312699  0.23707983  0.55296481  1
  O  O31  1  0.47639961  0.61899251  0.61958400  1
  O  O32  1  0.76119725  0.19126454  0.61988146  1
