# generated using pymatgen
data_HfSnS4
_symmetry_space_group_name_H-M   'P 1'
_cell_length_a   6.26916599
_cell_length_b   6.26916599
_cell_length_c   30.00000000
_cell_angle_alpha   90.00000000
_cell_angle_beta   90.00000000
_cell_angle_gamma   60.00000015
_symmetry_Int_Tables_number   1
_chemical_formula_structural   HfSnS4
_chemical_formula_sum   'Hf3 Sn3 S12'
_cell_volume   1021.10740169
_cell_formula_units_Z   3
loop_
 _symmetry_equiv_pos_site_id
 _symmetry_equiv_pos_as_xyz
  1  'x, y, z'
loop_
 _atom_site_type_symbol
 _atom_site_label
 _atom_site_symmetry_multiplicity
 _atom_site_fract_x
 _atom_site_fract_y
 _atom_site_fract_z
 _atom_site_occupancy
  Hf  Hf0  1  0.66666700  0.66666700  0.38712066  1
  Hf  Hf1  1  0.33333300  0.33333300  0.38712066  1
  Hf  Hf2  1  0.00000000  0.00000000  0.38712066  1
  Sn  Sn3  1  0.00000000  0.00000000  0.60986611  1
  Sn  Sn4  1  0.33333300  0.33333300  0.60986611  1
  Sn  Sn5  1  0.66666700  0.66666700  0.60986611  1
  S  S6  1  0.33333300  0.00000000  0.43838110  1
  S  S7  1  0.00000000  0.66666700  0.33571141  1
  S  S8  1  0.66666700  0.33333300  0.33571141  1
  S  S9  1  0.33333300  0.00000000  0.33571141  1
  S  S10  1  0.00000000  0.33333300  0.65998664  1
  S  S11  1  0.66666700  0.00000000  0.65998664  1
  S  S12  1  0.33333300  0.66666700  0.65998664  1
  S  S13  1  0.00000000  0.66666700  0.55976808  1
  S  S14  1  0.66666700  0.33333300  0.55976808  1
  S  S15  1  0.33333300  0.00000000  0.55976808  1
  S  S16  1  0.66666700  0.33333300  0.43838110  1
  S  S17  1  0.00000000  0.66666700  0.43838110  1
