# generated using pymatgen
data_Ge4W3(Se3O4)2
_symmetry_space_group_name_H-M   'P 1'
_cell_length_a   5.77443937
_cell_length_b   5.77444000
_cell_length_c   30.00000000
_cell_angle_alpha   90.00000000
_cell_angle_beta   90.00000000
_cell_angle_gamma   59.99999637
_symmetry_Int_Tables_number   1
_chemical_formula_structural   Ge4W3(Se3O4)2
_chemical_formula_sum   'Ge4 W3 Se6 O8'
_cell_volume   866.30649213
_cell_formula_units_Z   1
loop_
 _symmetry_equiv_pos_site_id
 _symmetry_equiv_pos_as_xyz
  1  'x, y, z'
loop_
 _atom_site_type_symbol
 _atom_site_label
 _atom_site_symmetry_multiplicity
 _atom_site_fract_x
 _atom_site_fract_y
 _atom_site_fract_z
 _atom_site_occupancy
  Ge  Ge0  1  0.00000000  0.00000000  0.58636721  1
  Ge  Ge1  1  0.99993814  0.49989288  0.58620770  1
  Ge  Ge2  1  0.50016899  0.99993814  0.58620770  1
  Ge  Ge3  1  0.49989288  0.50016899  0.58620770  1
  W  W4  1  0.66666700  0.66666700  0.39197547  1
  W  W5  1  0.33333300  0.33333300  0.39216586  1
  W  W6  1  0.00000000  0.00000000  0.39217907  1
  Se  Se7  1  0.99904764  0.33434279  0.44752724  1
  Se  Se8  1  0.66669671  0.00033823  0.33652310  1
  Se  Se9  1  0.33296506  0.66669671  0.33652310  1
  Se  Se10  1  0.00033823  0.33296506  0.33652310  1
  Se  Se11  1  0.66660957  0.99904764  0.44752724  1
  Se  Se12  1  0.33434279  0.66660957  0.44752724  1
  O  O13  1  0.33333300  0.33333300  0.61930168  1
  O  O14  1  0.33361668  0.83294245  0.61935878  1
  O  O15  1  0.66666700  0.66666700  0.55292195  1
  O  O16  1  0.66687429  0.16730878  0.55310944  1
  O  O17  1  0.16581793  0.66687429  0.55310944  1
  O  O18  1  0.16730878  0.16581793  0.55310944  1
  O  O19  1  0.83343987  0.33361668  0.61935878  1
  O  O20  1  0.83294245  0.83343987  0.61935878  1
