# generated using pymatgen
data_Te6Mo3(WS2)4
_symmetry_space_group_name_H-M   'P 1'
_cell_length_a   6.25803587
_cell_length_b   6.25803600
_cell_length_c   30.00000000
_cell_angle_alpha   90.00000000
_cell_angle_beta   90.00000000
_cell_angle_gamma   59.99999930
_symmetry_Int_Tables_number   1
_chemical_formula_structural   Te6Mo3(WS2)4
_chemical_formula_sum   'Te6 Mo3 W4 S8'
_cell_volume   1017.48493651
_cell_formula_units_Z   1
loop_
 _symmetry_equiv_pos_site_id
 _symmetry_equiv_pos_as_xyz
  1  'x, y, z'
loop_
 _atom_site_type_symbol
 _atom_site_label
 _atom_site_symmetry_multiplicity
 _atom_site_fract_x
 _atom_site_fract_y
 _atom_site_fract_z
 _atom_site_occupancy
  Te  Te0  1  0.33547462  0.99799514  0.55922400  1
  Te  Te1  1  0.66653025  0.33547462  0.55922400  1
  Te  Te2  1  0.99799514  0.66653025  0.55922400  1
  Te  Te3  1  0.33252630  0.00073269  0.67772793  1
  Te  Te4  1  0.66674101  0.33252630  0.67772793  1
  Te  Te5  1  0.00073269  0.66674101  0.67772793  1
  Mo  Mo6  1  0.00000000  0.00000000  0.61823853  1
  Mo  Mo7  1  0.33333300  0.33333300  0.61827685  1
  Mo  Mo8  1  0.66666700  0.66666700  0.61878036  1
  W  W9  1  0.50076653  0.49937139  0.38929943  1
  W  W10  1  0.49937139  0.99986208  0.38929943  1
  W  W11  1  0.99986208  0.50076653  0.38929943  1
  W  W12  1  0.00000000  0.00000000  0.38925407  1
  S  S13  1  0.16609235  0.16734042  0.33632432  1
  S  S14  1  0.16734042  0.66656823  0.33632432  1
  S  S15  1  0.66656823  0.16609235  0.33632432  1
  S  S16  1  0.66666700  0.66666700  0.33635461  1
  S  S17  1  0.16529889  0.16807902  0.44210371  1
  S  S18  1  0.16807902  0.66662309  0.44210371  1
  S  S19  1  0.66662309  0.16529889  0.44210371  1
  S  S20  1  0.66666700  0.66666700  0.44239241  1
