# generated using pymatgen
data_HfTiS4
_symmetry_space_group_name_H-M   'P 1'
_cell_length_a   3.53316332
_cell_length_b   3.53316300
_cell_length_c   30.00000000
_cell_angle_alpha   90.00000000
_cell_angle_beta   90.00000000
_cell_angle_gamma   59.99999368
_symmetry_Int_Tables_number   1
_chemical_formula_structural   HfTiS4
_chemical_formula_sum   'Hf1 Ti1 S4'
_cell_volume   324.32411838
_cell_formula_units_Z   1
loop_
 _symmetry_equiv_pos_site_id
 _symmetry_equiv_pos_as_xyz
  1  'x, y, z'
loop_
 _atom_site_type_symbol
 _atom_site_label
 _atom_site_symmetry_multiplicity
 _atom_site_fract_x
 _atom_site_fract_y
 _atom_site_fract_z
 _atom_site_occupancy
  Hf  Hf0  1  0.00000000  0.00000000  0.59736773  1
  Ti  Ti1  1  0.00000000  0.00000000  0.40361017  1
  S  S2  1  0.33333300  0.33333300  0.54778569  1
  S  S3  1  0.66666700  0.66666700  0.64710277  1
  S  S4  1  0.33333300  0.33333300  0.35798211  1
  S  S5  1  0.66666700  0.66666700  0.44894452  1
