# generated using pymatgen
data_Te2MoPbO2
_symmetry_space_group_name_H-M   'P 1'
_cell_length_a   6.00853256
_cell_length_b   6.00853256
_cell_length_c   30.00000000
_cell_angle_alpha   90.00000000
_cell_angle_beta   90.00000000
_cell_angle_gamma   59.99999382
_symmetry_Int_Tables_number   1
_chemical_formula_structural   Te2MoPbO2
_chemical_formula_sum   'Te6 Mo3 Pb3 O6'
_cell_volume   937.96945861
_cell_formula_units_Z   3
loop_
 _symmetry_equiv_pos_site_id
 _symmetry_equiv_pos_as_xyz
  1  'x, y, z'
loop_
 _atom_site_type_symbol
 _atom_site_label
 _atom_site_symmetry_multiplicity
 _atom_site_fract_x
 _atom_site_fract_y
 _atom_site_fract_z
 _atom_site_occupancy
  Te  Te0  1  0.00000000  0.66666700  0.44748689  1
  Te  Te1  1  0.33333300  0.00000000  0.44748689  1
  Te  Te2  1  0.00000000  0.66666700  0.32527458  1
  Te  Te3  1  0.66666700  0.33333300  0.32527458  1
  Te  Te4  1  0.33333300  0.00000000  0.32527458  1
  Te  Te5  1  0.66666700  0.33333300  0.44748689  1
  Mo  Mo6  1  0.66666700  0.66666700  0.38637422  1
  Mo  Mo7  1  0.33333300  0.33333300  0.38637422  1
  Mo  Mo8  1  0.00000000  0.00000000  0.38637422  1
  Pb  Pb9  1  0.00000000  0.00000000  0.58971395  1
  Pb  Pb10  1  0.66666700  0.66666700  0.58971395  1
  Pb  Pb11  1  0.33333300  0.33333300  0.58971395  1
  O  O12  1  0.33333300  0.66666700  0.62377464  1
  O  O13  1  0.00000000  0.66666700  0.55374072  1
  O  O14  1  0.66666700  0.33333300  0.55374072  1
  O  O15  1  0.33333300  0.00000000  0.55374072  1
  O  O16  1  0.66666700  0.00000000  0.62377464  1
  O  O17  1  0.00000000  0.33333300  0.62377464  1
