# generated using pymatgen
data_TiMo(SeS)2
_symmetry_space_group_name_H-M   'P 1'
_cell_length_a   3.33829811
_cell_length_b   3.33829800
_cell_length_c   30.00000000
_cell_angle_alpha   90.00000000
_cell_angle_beta   90.00000000
_cell_angle_gamma   60.00000109
_symmetry_Int_Tables_number   1
_chemical_formula_structural   TiMo(SeS)2
_chemical_formula_sum   'Ti1 Mo1 Se2 S2'
_cell_volume   289.53569314
_cell_formula_units_Z   1
loop_
 _symmetry_equiv_pos_site_id
 _symmetry_equiv_pos_as_xyz
  1  'x, y, z'
loop_
 _atom_site_type_symbol
 _atom_site_label
 _atom_site_symmetry_multiplicity
 _atom_site_fract_x
 _atom_site_fract_y
 _atom_site_fract_z
 _atom_site_occupancy
  Ti  Ti0  1  0.00000000  0.00000000  0.38676822  1
  Mo  Mo1  1  0.00000000  0.00000000  0.61138989  1
  Se  Se2  1  0.33333300  0.33333300  0.33155453  1
  Se  Se3  1  0.33333300  0.33333300  0.44161394  1
  S  S4  1  0.33333300  0.33333300  0.56109203  1
  S  S5  1  0.33333300  0.33333300  0.66181439  1
