# generated using pymatgen
data_ZrTeS
_symmetry_space_group_name_H-M   'P 1'
_cell_length_a   6.48785100
_cell_length_b   6.48785144
_cell_length_c   30.00000000
_cell_angle_alpha   90.00000000
_cell_angle_beta   90.00000000
_cell_angle_gamma   59.99999714
_symmetry_Int_Tables_number   1
_chemical_formula_structural   ZrTeS
_chemical_formula_sum   'Zr6 Te6 S6'
_cell_volume   1093.58775282
_cell_formula_units_Z   6
loop_
 _symmetry_equiv_pos_site_id
 _symmetry_equiv_pos_as_xyz
  1  'x, y, z'
loop_
 _atom_site_type_symbol
 _atom_site_label
 _atom_site_symmetry_multiplicity
 _atom_site_fract_x
 _atom_site_fract_y
 _atom_site_fract_z
 _atom_site_occupancy
  Zr  Zr0  1  0.00000000  0.00000000  0.60308587  1
  Zr  Zr1  1  0.33333300  0.33333300  0.60308587  1
  Zr  Zr2  1  0.66666700  0.66666700  0.60308587  1
  Zr  Zr3  1  0.66666700  0.66666700  0.38784353  1
  Zr  Zr4  1  0.33333300  0.33333300  0.38784353  1
  Zr  Zr5  1  0.00000000  0.00000000  0.38784353  1
  Te  Te6  1  0.00000000  0.33333300  0.45141290  1
  Te  Te7  1  0.66666700  0.00000000  0.32289417  1
  Te  Te8  1  0.33333300  0.66666700  0.32289417  1
  Te  Te9  1  0.00000000  0.33333300  0.32289417  1
  Te  Te10  1  0.66666700  0.00000000  0.45141290  1
  Te  Te11  1  0.33333300  0.66666700  0.45141290  1
  S  S12  1  0.66666700  0.33333300  0.65353803  1
  S  S13  1  0.33333300  0.00000000  0.65353803  1
  S  S14  1  0.00000000  0.66666700  0.55181049  1
  S  S15  1  0.66666700  0.33333300  0.55181049  1
  S  S16  1  0.33333300  0.00000000  0.55181049  1
  S  S17  1  0.00000000  0.66666700  0.65353803  1
