# generated using pymatgen
data_Sn3(Mo2S7)2
_symmetry_space_group_name_H-M   'P 1'
_cell_length_a   6.38485780
_cell_length_b   6.38485780
_cell_length_c   30.00000000
_cell_angle_alpha   90.00000000
_cell_angle_beta   90.00000000
_cell_angle_gamma   60.00000204
_symmetry_Int_Tables_number   1
_chemical_formula_structural   Sn3(Mo2S7)2
_chemical_formula_sum   'Sn3 Mo4 S14'
_cell_volume   1059.14240050
_cell_formula_units_Z   1
loop_
 _symmetry_equiv_pos_site_id
 _symmetry_equiv_pos_as_xyz
  1  'x, y, z'
loop_
 _atom_site_type_symbol
 _atom_site_label
 _atom_site_symmetry_multiplicity
 _atom_site_fract_x
 _atom_site_fract_y
 _atom_site_fract_z
 _atom_site_occupancy
  Sn  Sn0  1  0.00000000  0.00000000  0.60376227  1
  Sn  Sn1  1  0.33333300  0.33333300  0.60376776  1
  Sn  Sn2  1  0.66666700  0.66666700  0.60442561  1
  Mo  Mo3  1  0.50068807  0.49945569  0.39227566  1
  Mo  Mo4  1  0.49945569  0.99985624  0.39227566  1
  Mo  Mo5  1  0.00000000  0.00000000  0.39221098  1
  Mo  Mo6  1  0.99985624  0.50068807  0.39227566  1
  S  S7  1  0.66670027  0.00129618  0.65332576  1
  S  S8  1  0.00129618  0.33200354  0.65332576  1
  S  S9  1  0.99812069  0.66664887  0.55470574  1
  S  S10  1  0.66669346  0.16536667  0.44405658  1
  S  S11  1  0.66664887  0.33523044  0.55470574  1
  S  S12  1  0.33523044  0.99812069  0.55470574  1
  S  S13  1  0.16617151  0.16727655  0.34030347  1
  S  S14  1  0.16727655  0.66655293  0.34030347  1
  S  S15  1  0.66655293  0.16617151  0.34030347  1
  S  S16  1  0.66666700  0.66666700  0.34034540  1
  S  S17  1  0.16536667  0.16794087  0.44405658  1
  S  S18  1  0.16794087  0.66669346  0.44405658  1
  S  S19  1  0.33200354  0.66670027  0.65332576  1
  S  S20  1  0.66666700  0.66666700  0.44433738  1
