# generated using pymatgen
data_Zr3Ti4(Se3S4)2
_symmetry_space_group_name_H-M   'P 1'
_cell_length_a   6.54914170
_cell_length_b   6.54914200
_cell_length_c   30.00000000
_cell_angle_alpha   90.00000000
_cell_angle_beta   90.00000000
_cell_angle_gamma   59.99999849
_symmetry_Int_Tables_number   1
_chemical_formula_structural   Zr3Ti4(Se3S4)2
_chemical_formula_sum   'Zr3 Ti4 Se6 S8'
_cell_volume   1114.34757935
_cell_formula_units_Z   1
loop_
 _symmetry_equiv_pos_site_id
 _symmetry_equiv_pos_as_xyz
  1  'x, y, z'
loop_
 _atom_site_type_symbol
 _atom_site_label
 _atom_site_symmetry_multiplicity
 _atom_site_fract_x
 _atom_site_fract_y
 _atom_site_fract_z
 _atom_site_occupancy
  Zr  Zr0  1  0.66666700  0.66666700  0.38346677  1
  Zr  Zr1  1  0.33333300  0.33333300  0.39386048  1
  Zr  Zr2  1  0.00000000  0.00000000  0.39500055  1
  Ti  Ti3  1  0.00000000  0.00000000  0.60361253  1
  Ti  Ti4  1  0.99980323  0.49961691  0.60504881  1
  Ti  Ti5  1  0.50057985  0.99980323  0.60504881  1
  Ti  Ti6  1  0.49961691  0.50057985  0.60504881  1
  Se  Se7  1  0.99164641  0.34231853  0.44607251  1
  Se  Se8  1  0.66725953  0.00860754  0.33524050  1
  Se  Se9  1  0.32413293  0.66725953  0.33524050  1
  Se  Se10  1  0.00860754  0.32413293  0.33524050  1
  Se  Se11  1  0.66603505  0.99164641  0.44607251  1
  Se  Se12  1  0.34231853  0.66603505  0.44607251  1
  S  S13  1  0.16639869  0.66756741  0.65540179  1
  S  S14  1  0.16603490  0.16639869  0.65540179  1
  S  S15  1  0.66666700  0.66666700  0.55418041  1
  S  S16  1  0.66559786  0.16975436  0.55410732  1
  S  S17  1  0.16464878  0.66559786  0.55410732  1
  S  S18  1  0.16975436  0.16464878  0.55410732  1
  S  S19  1  0.66666700  0.66666700  0.65571548  1
  S  S20  1  0.66756741  0.16603490  0.65540179  1
