# generated using pymatgen
data_Ti7(Te3S4)2
_symmetry_space_group_name_H-M   'P 1'
_cell_length_a   6.57961634
_cell_length_b   6.57961700
_cell_length_c   30.00000000
_cell_angle_alpha   90.00000000
_cell_angle_beta   90.00000000
_cell_angle_gamma   60.00000173
_symmetry_Int_Tables_number   1
_chemical_formula_structural   Ti7(Te3S4)2
_chemical_formula_sum   'Ti7 Te6 S8'
_cell_volume   1124.74242966
_cell_formula_units_Z   1
loop_
 _symmetry_equiv_pos_site_id
 _symmetry_equiv_pos_as_xyz
  1  'x, y, z'
loop_
 _atom_site_type_symbol
 _atom_site_label
 _atom_site_symmetry_multiplicity
 _atom_site_fract_x
 _atom_site_fract_y
 _atom_site_fract_z
 _atom_site_occupancy
  Ti  Ti0  1  0.00000000  0.00000000  0.60094997  1
  Ti  Ti1  1  0.99962069  0.49946736  0.60625669  1
  Ti  Ti2  1  0.50091194  0.99962069  0.60625669  1
  Ti  Ti3  1  0.49946736  0.50091194  0.60625669  1
  Ti  Ti4  1  0.66666700  0.66666700  0.38454216  1
  Ti  Ti5  1  0.33333300  0.33333300  0.38869943  1
  Ti  Ti6  1  0.00000000  0.00000000  0.38869530  1
  Te  Te7  1  0.99531854  0.33757927  0.44534338  1
  Te  Te8  1  0.66668973  0.00350010  0.32832441  1
  Te  Te9  1  0.32981017  0.66668973  0.32832441  1
  Te  Te10  1  0.00350010  0.32981017  0.32832441  1
  Te  Te11  1  0.66710219  0.99531854  0.44534338  1
  Te  Te12  1  0.33757927  0.66710219  0.44534338  1
  S  S13  1  0.16477202  0.67022222  0.65514301  1
  S  S14  1  0.16500676  0.16477202  0.65514301  1
  S  S15  1  0.66666700  0.66666700  0.55534065  1
  S  S16  1  0.66279410  0.17204877  0.55408753  1
  S  S17  1  0.16515813  0.66279410  0.55408753  1
  S  S18  1  0.17204877  0.16515813  0.55408753  1
  S  S19  1  0.66666700  0.66666700  0.65653843  1
  S  S20  1  0.67022222  0.16500676  0.65514301  1
