# generated using pymatgen
data_Zr4Cr7(Te4S7)2
_symmetry_space_group_name_H-M   'P 1'
_cell_length_a   7.94902251
_cell_length_b   7.94902214
_cell_length_c   30.00000000
_cell_angle_alpha   90.00000000
_cell_angle_beta   90.00000000
_cell_angle_gamma   60.00000027
_symmetry_Int_Tables_number   1
_chemical_formula_structural   Zr4Cr7(Te4S7)2
_chemical_formula_sum   'Zr4 Cr7 Te8 S14'
_cell_volume   1641.64527424
_cell_formula_units_Z   1
loop_
 _symmetry_equiv_pos_site_id
 _symmetry_equiv_pos_as_xyz
  1  'x, y, z'
loop_
 _atom_site_type_symbol
 _atom_site_label
 _atom_site_symmetry_multiplicity
 _atom_site_fract_x
 _atom_site_fract_y
 _atom_site_fract_z
 _atom_site_occupancy
  Zr  Zr0  1  0.00000000  0.00000000  0.38260035  1
  Zr  Zr1  1  0.49937904  0.99992305  0.37980858  1
  Zr  Zr2  1  0.50069791  0.49937904  0.37980858  1
  Zr  Zr3  1  0.99992305  0.50069791  0.37980858  1
  Cr  Cr4  1  0.85681740  0.71428944  0.60697636  1
  Cr  Cr5  1  0.00000000  0.00000000  0.60743256  1
  Cr  Cr6  1  0.42889316  0.85681740  0.60697636  1
  Cr  Cr7  1  0.57133829  0.14314954  0.60687361  1
  Cr  Cr8  1  0.28551217  0.57133829  0.60687361  1
  Cr  Cr9  1  0.14314954  0.28551217  0.60687361  1
  Cr  Cr10  1  0.71428944  0.42889316  0.60697636  1
  Te  Te11  1  0.17026650  0.66336475  0.44166216  1
  Te  Te12  1  0.66666700  0.66666700  0.31835121  1
  Te  Te13  1  0.66923505  0.16495519  0.31915076  1
  Te  Te14  1  0.16581076  0.66923505  0.31915076  1
  Te  Te15  1  0.16495519  0.16581076  0.31915076  1
  Te  Te16  1  0.16636975  0.17026650  0.44166216  1
  Te  Te17  1  0.66666700  0.66666700  0.44103177  1
  Te  Te18  1  0.66336475  0.16636975  0.44166216  1
  S  S19  1  0.61901371  0.90499384  0.65616843  1
  S  S20  1  0.90499384  0.47599245  0.65616843  1
  S  S21  1  0.04764903  0.76119131  0.65634621  1
  S  S22  1  0.33333300  0.33333300  0.65608180  1
  S  S23  1  0.19115966  0.04764903  0.65634621  1
  S  S24  1  0.04654298  0.76299215  0.55816273  1
  S  S25  1  0.90513793  0.47590005  0.55765048  1
  S  S26  1  0.61896201  0.90513793  0.55765048  1
  S  S27  1  0.76299215  0.19046487  0.55816273  1
  S  S28  1  0.47590005  0.61896201  0.55765048  1
  S  S29  1  0.33333300  0.33333300  0.55745436  1
  S  S30  1  0.19046487  0.04654298  0.55816273  1
  S  S31  1  0.76119131  0.19115966  0.65634621  1
  S  S32  1  0.47599245  0.61901371  0.65616843  1
