# generated using pymatgen
data_Sn4Pt3(S3O4)2
_symmetry_space_group_name_H-M   'P 1'
_cell_length_a   6.31797538
_cell_length_b   6.31797600
_cell_length_c   30.00000000
_cell_angle_alpha   90.00000000
_cell_angle_beta   90.00000000
_cell_angle_gamma   59.99999675
_symmetry_Int_Tables_number   1
_chemical_formula_structural   Sn4Pt3(S3O4)2
_chemical_formula_sum   'Sn4 Pt3 S6 O8'
_cell_volume   1037.06928808
_cell_formula_units_Z   1
loop_
 _symmetry_equiv_pos_site_id
 _symmetry_equiv_pos_as_xyz
  1  'x, y, z'
loop_
 _atom_site_type_symbol
 _atom_site_label
 _atom_site_symmetry_multiplicity
 _atom_site_fract_x
 _atom_site_fract_y
 _atom_site_fract_z
 _atom_site_occupancy
  Sn  Sn0  1  0.00015206  0.49941381  0.41629089  1
  Sn  Sn1  1  0.49941381  0.50043412  0.41629089  1
  Sn  Sn2  1  0.50043412  0.00015206  0.41629089  1
  Sn  Sn3  1  0.00000000  0.00000000  0.41587026  1
  Pt  Pt4  1  0.00000000  0.00000000  0.58837716  1
  Pt  Pt5  1  0.66666700  0.66666700  0.58846841  1
  Pt  Pt6  1  0.33333300  0.33333300  0.58921788  1
  S  S7  1  0.66393187  0.00244553  0.54949362  1
  S  S8  1  0.33312866  0.99837947  0.62820566  1
  S  S9  1  0.66849186  0.33312866  0.62820566  1
  S  S10  1  0.99837947  0.66849186  0.62820566  1
  S  S11  1  0.00244553  0.33362260  0.54949362  1
  S  S12  1  0.33362260  0.66393187  0.54949362  1
  O  O13  1  0.83515593  0.83208902  0.45094613  1
  O  O14  1  0.16675402  0.16719734  0.38136637  1
  O  O15  1  0.16719734  0.66604964  0.38136637  1
  O  O16  1  0.66604964  0.16675402  0.38136637  1
  O  O17  1  0.66666700  0.66666700  0.38153737  1
  O  O18  1  0.33275405  0.83515593  0.45094613  1
  O  O19  1  0.33333300  0.33333300  0.45127191  1
  O  O20  1  0.83208902  0.33275405  0.45094613  1
