# generated using pymatgen
data_Zr3Ni4(Te3S4)2
_symmetry_space_group_name_H-M   'P 1'
_cell_length_a   6.74849200
_cell_length_b   6.74849156
_cell_length_c   30.00000000
_cell_angle_alpha   90.00000000
_cell_angle_beta   90.00000000
_cell_angle_gamma   59.99999784
_symmetry_Int_Tables_number   1
_chemical_formula_structural   Zr3Ni4(Te3S4)2
_chemical_formula_sum   'Zr3 Ni4 Te6 S8'
_cell_volume   1183.21951343
_cell_formula_units_Z   1
loop_
 _symmetry_equiv_pos_site_id
 _symmetry_equiv_pos_as_xyz
  1  'x, y, z'
loop_
 _atom_site_type_symbol
 _atom_site_label
 _atom_site_symmetry_multiplicity
 _atom_site_fract_x
 _atom_site_fract_y
 _atom_site_fract_z
 _atom_site_occupancy
  Zr  Zr0  1  0.66666700  0.66666700  0.38527079  1
  Zr  Zr1  1  0.33333300  0.33333300  0.39045986  1
  Zr  Zr2  1  0.00000000  0.00000000  0.39315808  1
  Ni  Ni3  1  0.00000000  0.00000000  0.58947886  1
  Ni  Ni4  1  0.99949115  0.49660143  0.59011804  1
  Ni  Ni5  1  0.50390743  0.99949115  0.59011804  1
  Ni  Ni6  1  0.49660143  0.50390743  0.59011804  1
  Te  Te7  1  0.99553926  0.33982310  0.45151315  1
  Te  Te8  1  0.66874141  0.00489158  0.32714454  1
  Te  Te9  1  0.32636700  0.66874141  0.32714454  1
  Te  Te10  1  0.00489158  0.32636700  0.32714454  1
  Te  Te11  1  0.66463764  0.99553926  0.45151315  1
  Te  Te12  1  0.33982310  0.66463764  0.45151315  1
  S  S13  1  0.33333300  0.33333300  0.62860209  1
  S  S14  1  0.33173359  0.83946264  0.62853576  1
  S  S15  1  0.66666700  0.66666700  0.55171974  1
  S  S16  1  0.66525755  0.17151589  0.55178204  1
  S  S17  1  0.16322756  0.66525755  0.55178204  1
  S  S18  1  0.17151589  0.16322756  0.55178204  1
  S  S19  1  0.82880278  0.33173359  0.62853576  1
  S  S20  1  0.83946264  0.82880278  0.62853576  1
