# generated using pymatgen
data_Ti3Mo4(S3O4)2
_symmetry_space_group_name_H-M   'P 1'
_cell_length_a   5.77657191
_cell_length_b   5.77657191
_cell_length_c   30.00000000
_cell_angle_alpha   90.00000000
_cell_angle_beta   90.00000000
_cell_angle_gamma   60.00000098
_symmetry_Int_Tables_number   1
_chemical_formula_structural   Ti3Mo4(S3O4)2
_chemical_formula_sum   'Ti3 Mo4 S6 O8'
_cell_volume   866.94642385
_cell_formula_units_Z   1
loop_
 _symmetry_equiv_pos_site_id
 _symmetry_equiv_pos_as_xyz
  1  'x, y, z'
loop_
 _atom_site_type_symbol
 _atom_site_label
 _atom_site_symmetry_multiplicity
 _atom_site_fract_x
 _atom_site_fract_y
 _atom_site_fract_z
 _atom_site_occupancy
  Ti  Ti0  1  0.00000000  0.00000000  0.59499183  1
  Ti  Ti1  1  0.33333300  0.33333300  0.59508001  1
  Ti  Ti2  1  0.66666700  0.66666700  0.59568260  1
  Mo  Mo3  1  0.50026716  0.49979644  0.40856725  1
  Mo  Mo4  1  0.49979644  0.99993640  0.40856725  1
  Mo  Mo5  1  0.00000000  0.00000000  0.40854327  1
  Mo  Mo6  1  0.99993640  0.50026716  0.40856725  1
  S  S7  1  0.66673961  0.00068359  0.64378665  1
  S  S8  1  0.00068359  0.33257681  0.64378665  1
  S  S9  1  0.99892713  0.66656457  0.54718594  1
  S  S10  1  0.66656457  0.33450831  0.54718594  1
  S  S11  1  0.33450831  0.99892713  0.54718594  1
  S  S12  1  0.33257681  0.66673961  0.64378665  1
  O  O13  1  0.66668097  0.16570929  0.44911763  1
  O  O14  1  0.16646630  0.16686135  0.36796283  1
  O  O15  1  0.16686135  0.66667335  0.36796283  1
  O  O16  1  0.66667335  0.16646630  0.36796283  1
  O  O17  1  0.66666700  0.66666700  0.36799265  1
  O  O18  1  0.16570929  0.16761074  0.44911763  1
  O  O19  1  0.16761074  0.66668097  0.44911763  1
  O  O20  1  0.66666700  0.66666700  0.44923477  1
