# generated using pymatgen
data_Mo4Pd3(Se3S4)2
_symmetry_space_group_name_H-M   'P 1'
_cell_length_a   6.41521374
_cell_length_b   6.41521374
_cell_length_c   30.00000000
_cell_angle_alpha   90.00000000
_cell_angle_beta   90.00000000
_cell_angle_gamma   60.00000263
_symmetry_Int_Tables_number   1
_chemical_formula_structural   Mo4Pd3(Se3S4)2
_chemical_formula_sum   'Mo4 Pd3 Se6 S8'
_cell_volume   1069.23744594
_cell_formula_units_Z   1
loop_
 _symmetry_equiv_pos_site_id
 _symmetry_equiv_pos_as_xyz
  1  'x, y, z'
loop_
 _atom_site_type_symbol
 _atom_site_label
 _atom_site_symmetry_multiplicity
 _atom_site_fract_x
 _atom_site_fract_y
 _atom_site_fract_z
 _atom_site_occupancy
  Mo  Mo0  1  0.99985811  0.50083378  0.39360257  1
  Mo  Mo1  1  0.50083378  0.49930811  0.39360257  1
  Mo  Mo2  1  0.49930811  0.99985811  0.39360257  1
  Mo  Mo3  1  0.00000000  0.00000000  0.39360830  1
  Pd  Pd4  1  0.00000000  0.00000000  0.59610001  1
  Pd  Pd5  1  0.66666700  0.66666700  0.59770622  1
  Pd  Pd6  1  0.33333300  0.33333300  0.59628675  1
  Se  Se7  1  0.99584017  0.66630986  0.55262647  1
  Se  Se8  1  0.32993769  0.66695876  0.64109190  1
  Se  Se9  1  0.66695876  0.00310355  0.64109190  1
  Se  Se10  1  0.00310355  0.32993769  0.64109190  1
  Se  Se11  1  0.33784996  0.99584017  0.55262647  1
  Se  Se12  1  0.66630986  0.33784996  0.55262647  1
  S  S13  1  0.66650529  0.16510037  0.44524284  1
  S  S14  1  0.16598554  0.16733414  0.34182032  1
  S  S15  1  0.16733414  0.66668132  0.34182032  1
  S  S16  1  0.66668132  0.16598554  0.34182032  1
  S  S17  1  0.66666700  0.66666700  0.34183048  1
  S  S18  1  0.16510037  0.16839534  0.44524284  1
  S  S19  1  0.16839534  0.66650529  0.44524284  1
  S  S20  1  0.66666700  0.66666700  0.44551893  1
