# generated using pymatgen
data_NiMoSe4
_symmetry_space_group_name_H-M   'P 1'
_cell_length_a   3.43055854
_cell_length_b   3.43055900
_cell_length_c   30.00000000
_cell_angle_alpha   90.00000000
_cell_angle_beta   90.00000000
_cell_angle_gamma   60.00000520
_symmetry_Int_Tables_number   1
_chemical_formula_structural   NiMoSe4
_chemical_formula_sum   'Ni1 Mo1 Se4'
_cell_volume   305.76068075
_cell_formula_units_Z   1
loop_
 _symmetry_equiv_pos_site_id
 _symmetry_equiv_pos_as_xyz
  1  'x, y, z'
loop_
 _atom_site_type_symbol
 _atom_site_label
 _atom_site_symmetry_multiplicity
 _atom_site_fract_x
 _atom_site_fract_y
 _atom_site_fract_z
 _atom_site_occupancy
  Ni  Ni0  1  0.00000000  0.00000000  0.60259651  1
  Mo  Mo1  1  0.00000000  0.00000000  0.38326971  1
  Se  Se2  1  0.33333300  0.33333300  0.55921233  1
  Se  Se3  1  0.66666700  0.66666700  0.64612168  1
  Se  Se4  1  0.33333300  0.33333300  0.32901046  1
  Se  Se5  1  0.33333300  0.33333300  0.43746631  1
