# generated using pymatgen
data_Pd3Pt4(Se3O4)2
_symmetry_space_group_name_H-M   'P 1'
_cell_length_a   6.37393600
_cell_length_b   6.37393643
_cell_length_c   30.00000000
_cell_angle_alpha   90.00000000
_cell_angle_beta   90.00000000
_cell_angle_gamma   60.00000226
_symmetry_Int_Tables_number   1
_chemical_formula_structural   Pd3Pt4(Se3O4)2
_chemical_formula_sum   'Pd3 Pt4 Se6 O8'
_cell_volume   1055.52208064
_cell_formula_units_Z   1
loop_
 _symmetry_equiv_pos_site_id
 _symmetry_equiv_pos_as_xyz
  1  'x, y, z'
loop_
 _atom_site_type_symbol
 _atom_site_label
 _atom_site_symmetry_multiplicity
 _atom_site_fract_x
 _atom_site_fract_y
 _atom_site_fract_z
 _atom_site_occupancy
  Pd  Pd0  1  0.00000000  0.00000000  0.58797993  1
  Pd  Pd1  1  0.33333300  0.33333300  0.58969489  1
  Pd  Pd2  1  0.66666700  0.66666700  0.58781297  1
  Pt  Pt3  1  0.49987494  0.49995133  0.42013156  1
  Pt  Pt4  1  0.49995133  0.00017372  0.42013156  1
  Pt  Pt5  1  0.00000000  0.00000000  0.42014185  1
  Pt  Pt6  1  0.00017372  0.49987494  0.42013156  1
  Se  Se7  1  0.67046188  0.33373651  0.63333398  1
  Se  Se8  1  0.99580161  0.67046188  0.63333398  1
  Se  Se9  1  0.66174458  0.00547981  0.54405783  1
  Se  Se10  1  0.33277561  0.66174458  0.54405783  1
  Se  Se11  1  0.00547981  0.33277561  0.54405783  1
  Se  Se12  1  0.33373651  0.99580161  0.63333398  1
  O  O13  1  0.83426264  0.83246390  0.45090484  1
  O  O14  1  0.16710928  0.16597229  0.38926429  1
  O  O15  1  0.16597229  0.66691943  0.38926429  1
  O  O16  1  0.66691943  0.16710928  0.38926429  1
  O  O17  1  0.66666700  0.66666700  0.38935107  1
  O  O18  1  0.33327245  0.83426264  0.45090484  1
  O  O19  1  0.33333300  0.33333300  0.45096879  1
  O  O20  1  0.83246390  0.33327245  0.45090484  1
