# generated using pymatgen
data_TiW(SeS)2
_symmetry_space_group_name_H-M   'P 1'
_cell_length_a   3.36705597
_cell_length_b   3.36705600
_cell_length_c   30.00000000
_cell_angle_alpha   90.00000000
_cell_angle_beta   90.00000000
_cell_angle_gamma   59.99999973
_symmetry_Int_Tables_number   1
_chemical_formula_structural   TiW(SeS)2
_chemical_formula_sum   'Ti1 W1 Se2 S2'
_cell_volume   294.54561437
_cell_formula_units_Z   1
loop_
 _symmetry_equiv_pos_site_id
 _symmetry_equiv_pos_as_xyz
  1  'x, y, z'
loop_
 _atom_site_type_symbol
 _atom_site_label
 _atom_site_symmetry_multiplicity
 _atom_site_fract_x
 _atom_site_fract_y
 _atom_site_fract_z
 _atom_site_occupancy
  Ti  Ti0  1  0.00000000  0.00000000  0.60691278  1
  W  W1  1  0.00000000  0.00000000  0.38443647  1
  Se  Se2  1  0.33333300  0.33333300  0.32923749  1
  Se  Se3  1  0.33333300  0.33333300  0.43954627  1
  S  S4  1  0.33333300  0.33333300  0.55907733  1
  S  S5  1  0.66666700  0.66666700  0.65497765  1
