# generated using pymatgen
data_Ti3Ge4(Se3O4)2
_symmetry_space_group_name_H-M   'P 1'
_cell_length_a   5.92468499
_cell_length_b   5.92468499
_cell_length_c   30.00000000
_cell_angle_alpha   90.00000000
_cell_angle_beta   90.00000000
_cell_angle_gamma   59.99998891
_symmetry_Int_Tables_number   1
_chemical_formula_structural   Ti3Ge4(Se3O4)2
_chemical_formula_sum   'Ti3 Ge4 Se6 O8'
_cell_volume   911.97381080
_cell_formula_units_Z   1
loop_
 _symmetry_equiv_pos_site_id
 _symmetry_equiv_pos_as_xyz
  1  'x, y, z'
loop_
 _atom_site_type_symbol
 _atom_site_label
 _atom_site_symmetry_multiplicity
 _atom_site_fract_x
 _atom_site_fract_y
 _atom_site_fract_z
 _atom_site_occupancy
  Ti  Ti0  1  0.66666661  0.66666682  0.39159851  1
  Ti  Ti1  1  0.33333323  0.33333344  0.39540816  1
  Ti  Ti2  1  0.00000030  0.99999974  0.39571279  1
  Ge  Ge3  1  0.99999996  0.00000000  0.58618644  1
  Ge  Ge4  1  0.99992725  0.50015949  0.58607616  1
  Ge  Ge5  1  0.49991323  0.99992722  0.58607616  1
  Ge  Ge6  1  0.50015948  0.49991323  0.58607616  1
  Se  Se7  1  0.33716531  0.99643890  0.44852514  1
  Se  Se8  1  0.00314528  0.66688907  0.33969695  1
  Se  Se9  1  0.66688905  0.32996573  0.33969689  1
  Se  Se10  1  0.32996574  0.00314530  0.33969695  1
  Se  Se11  1  0.99643889  0.66639587  0.44852514  1
  Se  Se12  1  0.66639584  0.33716532  0.44852520  1
  O  O13  1  0.33333338  0.33333348  0.61825507  1
  O  O14  1  0.33351979  0.83362317  0.61830415  1
  O  O15  1  0.66666661  0.66666644  0.55378252  1
  O  O16  1  0.66679947  0.16575569  0.55393308  1
  O  O17  1  0.16744434  0.66679963  0.55393310  1
  O  O18  1  0.16575567  0.16744435  0.55393309  1
  O  O19  1  0.83285741  0.33351968  0.61830417  1
  O  O20  1  0.83362316  0.83285742  0.61830417  1
