# generated using pymatgen
data_Cr7Te8(Pt2S7)2
_symmetry_space_group_name_H-M   'P 1'
_cell_length_a   8.04492638
_cell_length_b   8.04492686
_cell_length_c   30.00000000
_cell_angle_alpha   90.00000000
_cell_angle_beta   90.00000000
_cell_angle_gamma   59.99999872
_symmetry_Int_Tables_number   1
_chemical_formula_structural   Cr7Te8(Pt2S7)2
_chemical_formula_sum   'Cr7 Te8 Pt4 S14'
_cell_volume   1681.49683910
_cell_formula_units_Z   1
loop_
 _symmetry_equiv_pos_site_id
 _symmetry_equiv_pos_as_xyz
  1  'x, y, z'
loop_
 _atom_site_type_symbol
 _atom_site_label
 _atom_site_symmetry_multiplicity
 _atom_site_fract_x
 _atom_site_fract_y
 _atom_site_fract_z
 _atom_site_occupancy
  Cr  Cr0  1  0.57183870  0.28522131  0.39465128  1
  Cr  Cr1  1  0.85745255  0.42856995  0.39415705  1
  Cr  Cr2  1  0.71397751  0.85745255  0.39415705  1
  Cr  Cr3  1  0.42856995  0.71397751  0.39415705  1
  Cr  Cr4  1  0.00000000  0.00000000  0.39460490  1
  Cr  Cr5  1  0.14293999  0.57183870  0.39465128  1
  Cr  Cr6  1  0.28522131  0.14293999  0.39465128  1
  Te  Te7  1  0.16668060  0.16758912  0.55497511  1
  Te  Te8  1  0.16758912  0.66573128  0.55497511  1
  Te  Te9  1  0.66573128  0.16668060  0.55497511  1
  Te  Te10  1  0.66666700  0.66666700  0.55587844  1
  Te  Te11  1  0.33226677  0.83350983  0.64740447  1
  Te  Te12  1  0.33333300  0.33333300  0.64773716  1
  Te  Te13  1  0.83350983  0.83422241  0.64740447  1
  Te  Te14  1  0.83422241  0.33226677  0.64740447  1
  Pt  Pt15  1  0.00000000  0.00000000  0.60058832  1
  Pt  Pt16  1  0.49954948  0.00035024  0.60125373  1
  Pt  Pt17  1  0.00035024  0.50010028  0.60125373  1
  Pt  Pt18  1  0.50010028  0.49954948  0.60125373  1
  S  S19  1  0.95103436  0.81020879  0.44335681  1
  S  S20  1  0.81020879  0.23875685  0.44335681  1
  S  S21  1  0.66666700  0.66666700  0.44232992  1
  S  S22  1  0.52315049  0.09461465  0.44342401  1
  S  S23  1  0.38223486  0.52315049  0.44342401  1
  S  S24  1  0.23875685  0.95103436  0.44335681  1
  S  S25  1  0.95284475  0.80965473  0.34562935  1
  S  S26  1  0.80965473  0.23750051  0.34562935  1
  S  S27  1  0.66666700  0.66666700  0.34520293  1
  S  S28  1  0.52292809  0.09592645  0.34564963  1
  S  S29  1  0.38114546  0.52292809  0.34564963  1
  S  S30  1  0.23750051  0.95284475  0.34562935  1
  S  S31  1  0.09592645  0.38114546  0.34564963  1
  S  S32  1  0.09461465  0.38223486  0.44342401  1
