# generated using pymatgen
data_Te6Mo7Pt3O14
_symmetry_space_group_name_H-M   'P 1'
_cell_length_a   7.20720354
_cell_length_b   7.20720329
_cell_length_c   30.00000000
_cell_angle_alpha   90.00000000
_cell_angle_beta   90.00000000
_cell_angle_gamma   59.99999693
_symmetry_Int_Tables_number   1
_chemical_formula_structural   Te6Mo7Pt3O14
_chemical_formula_sum   'Te6 Mo7 Pt3 O14'
_cell_volume   1349.53897836
_cell_formula_units_Z   1
loop_
 _symmetry_equiv_pos_site_id
 _symmetry_equiv_pos_as_xyz
  1  'x, y, z'
loop_
 _atom_site_type_symbol
 _atom_site_label
 _atom_site_symmetry_multiplicity
 _atom_site_fract_x
 _atom_site_fract_y
 _atom_site_fract_z
 _atom_site_occupancy
  Te  Te0  1  0.33541499  0.99926474  0.54815373  1
  Te  Te1  1  0.66532027  0.33541499  0.54815373  1
  Te  Te2  1  0.99926474  0.66532027  0.54815373  1
  Te  Te3  1  0.33207796  0.66747905  0.63559307  1
  Te  Te4  1  0.66747905  0.00044299  0.63559307  1
  Te  Te5  1  0.00044299  0.33207796  0.63559307  1
  Mo  Mo6  1  0.71423961  0.42857482  0.40631234  1
  Mo  Mo7  1  0.85718558  0.71423961  0.40631234  1
  Mo  Mo8  1  0.42857482  0.85718558  0.40631234  1
  Mo  Mo9  1  0.00000000  0.00000000  0.40575506  1
  Mo  Mo10  1  0.14272853  0.28581886  0.40634158  1
  Mo  Mo11  1  0.28581886  0.57145262  0.40634158  1
  Mo  Mo12  1  0.57145262  0.14272853  0.40634158  1
  Pt  Pt13  1  0.00000000  0.00000000  0.59114787  1
  Pt  Pt14  1  0.33333300  0.33333300  0.59170309  1
  Pt  Pt15  1  0.66666700  0.66666700  0.59196504  1
  O  O16  1  0.90474129  0.47603193  0.44893973  1
  O  O17  1  0.19103826  0.04795165  0.36378866  1
  O  O18  1  0.33333300  0.33333300  0.36407344  1
  O  O19  1  0.47629097  0.61904322  0.36403178  1
  O  O20  1  0.76101009  0.19103826  0.36378866  1
  O  O21  1  0.61904322  0.90466581  0.36403178  1
  O  O22  1  0.90466581  0.47629097  0.36403178  1
  O  O23  1  0.04795165  0.76101009  0.36378866  1
  O  O24  1  0.18937388  0.04761255  0.44852910  1
  O  O25  1  0.33333300  0.33333300  0.44894152  1
  O  O26  1  0.47603193  0.61922678  0.44893973  1
  O  O27  1  0.76301357  0.18937388  0.44852910  1
  O  O28  1  0.61922678  0.90474129  0.44893973  1
  O  O29  1  0.04761255  0.76301357  0.44852910  1
