
#======================================================================
# CRYSTAL DATA
#----------------------------------------------------------------------
data_VESTA_phase_1

_chemical_name_common                  'Cr6 Se6 S6                            '
_cell_length_a                         5.417627
_cell_length_b                         5.417626
_cell_length_c                         30.000000
_cell_angle_alpha                      90.000000
_cell_angle_beta                       90.000000
_cell_angle_gamma                      60.000000
_cell_volume                           762.552988
_space_group_name_H-M_alt              'P 1'
_space_group_IT_number                 1

loop_
_space_group_symop_operation_xyz
   'x, y, z'

loop_
   _atom_site_label
   _atom_site_occupancy
   _atom_site_fract_x
   _atom_site_fract_y
   _atom_site_fract_z
   _atom_site_adp_type
   _atom_site_U_iso_or_equiv
   _atom_site_type_symbol
   Cr1        1.0     0.000000     0.000000     0.603781    Uiso  ? Cr
   Cr2        1.0     0.333333     0.333333     0.603781    Uiso  ? Cr
   Cr3        1.0     0.666667     0.666667     0.603781    Uiso  ? Cr
   Cr4        1.0     0.666667     0.666667     0.392896    Uiso  ? Cr
   Cr5        1.0     0.333333     0.333333     0.392896    Uiso  ? Cr
   Cr6        1.0     0.000000     0.000000     0.392896    Uiso  ? Cr
   Se1        1.0     0.000000     0.333333     0.445866    Uiso  ? Se
   Se2        1.0     0.666667     0.000000     0.339814    Uiso  ? Se
   Se3        1.0     0.333333     0.666667     0.339814    Uiso  ? Se
   Se4        1.0     0.000000     0.333333     0.339814    Uiso  ? Se
   Se5        1.0     0.666667     0.000000     0.445866    Uiso  ? Se
   Se6        1.0     0.333333     0.666667     0.445866    Uiso  ? Se
   S1         1.0     0.666667     0.333333     0.651903    Uiso  ? S
   S2         1.0     0.333333     0.000000     0.651903    Uiso  ? S
   S3         1.0     0.000000     0.666667     0.555797    Uiso  ? S
   S4         1.0     0.666667     0.333333     0.555797    Uiso  ? S
   S5         1.0     0.333333     0.000000     0.555797    Uiso  ? S
   S6         1.0     0.000000     0.666667     0.651903    Uiso  ? S
