# generated using pymatgen
data_Te6Pt4W3O8
_symmetry_space_group_name_H-M   'P 1'
_cell_length_a   6.21724465
_cell_length_b   6.21724500
_cell_length_c   30.00000000
_cell_angle_alpha   90.00000000
_cell_angle_beta   90.00000000
_cell_angle_gamma   60.00000348
_symmetry_Int_Tables_number   1
_chemical_formula_structural   Te6Pt4W3O8
_chemical_formula_sum   'Te6 Pt4 W3 O8'
_cell_volume   1004.26387547
_cell_formula_units_Z   1
loop_
 _symmetry_equiv_pos_site_id
 _symmetry_equiv_pos_as_xyz
  1  'x, y, z'
loop_
 _atom_site_type_symbol
 _atom_site_label
 _atom_site_symmetry_multiplicity
 _atom_site_fract_x
 _atom_site_fract_y
 _atom_site_fract_z
 _atom_site_occupancy
  Te  Te0  1  0.66697276  0.99747129  0.45050470  1
  Te  Te1  1  0.99747725  0.33556087  0.45050520  1
  Te  Te2  1  0.66657366  0.00117698  0.33112485  1
  Te  Te3  1  0.33226016  0.66657010  0.33112539  1
  Te  Te4  1  0.00118131  0.33225490  0.33112506  1
  Te  Te5  1  0.33556771  0.66696931  0.45050455  1
  Pt  Pt6  1  0.00002303  0.99999989  0.58288814  1
  Pt  Pt7  1  0.49997051  0.50022745  0.58286827  1
  Pt  Pt8  1  0.50024501  0.99981869  0.58287106  1
  Pt  Pt9  1  0.99983247  0.49995520  0.58287458  1
  W  W10  1  0.00000333  0.00000303  0.39106067  1
  W  W11  1  0.33333829  0.33333325  0.39112209  1
  W  W12  1  0.66667497  0.66666518  0.39044469  1
  O  O13  1  0.66671228  0.66666484  0.55031737  1
  O  O14  1  0.33310874  0.83407377  0.61537452  1
  O  O15  1  0.33337978  0.33333136  0.61528300  1
  O  O16  1  0.16571231  0.66665215  0.55042022  1
  O  O17  1  0.83285166  0.33309604  0.61537579  1
  O  O18  1  0.16766835  0.16568840  0.55042180  1
  O  O19  1  0.66666376  0.16765860  0.55041852  1
  O  O20  1  0.83408266  0.83282874  0.61537752  1
