# generated using pymatgen
data_Ti4Pt3(Se3S4)2
_symmetry_space_group_name_H-M   'P 1'
_cell_length_a   6.58728598
_cell_length_b   6.58728600
_cell_length_c   30.00000000
_cell_angle_alpha   90.00000000
_cell_angle_beta   90.00000000
_cell_angle_gamma   59.99999992
_symmetry_Int_Tables_number   1
_chemical_formula_structural   Ti4Pt3(Se3S4)2
_chemical_formula_sum   'Ti4 Pt3 Se6 S8'
_cell_volume   1127.36597759
_cell_formula_units_Z   1
loop_
 _symmetry_equiv_pos_site_id
 _symmetry_equiv_pos_as_xyz
  1  'x, y, z'
loop_
 _atom_site_type_symbol
 _atom_site_label
 _atom_site_symmetry_multiplicity
 _atom_site_fract_x
 _atom_site_fract_y
 _atom_site_fract_z
 _atom_site_occupancy
  Ti  Ti0  1  0.99966481  0.50115900  0.39732947  1
  Ti  Ti1  1  0.50115900  0.49917619  0.39732947  1
  Ti  Ti2  1  0.49917619  0.99966481  0.39732947  1
  Ti  Ti3  1  0.00000000  0.00000000  0.40363491  1
  Pt  Pt4  1  0.00000000  0.00000000  0.59114910  1
  Pt  Pt5  1  0.66666700  0.66666700  0.59270995  1
  Pt  Pt6  1  0.33333300  0.33333300  0.59124074  1
  Se  Se7  1  0.99643270  0.66646773  0.54955677  1
  Se  Se8  1  0.33030812  0.66682340  0.63446835  1
  Se  Se9  1  0.66682340  0.00286849  0.63446835  1
  Se  Se10  1  0.00286849  0.33030812  0.63446835  1
  Se  Se11  1  0.33709957  0.99643270  0.54955677  1
  Se  Se12  1  0.66646773  0.33709957  0.54955677  1
  S  S13  1  0.66287568  0.16413152  0.44975981  1
  S  S14  1  0.16480084  0.16504862  0.34876322  1
  S  S15  1  0.16504862  0.67015155  0.34876322  1
  S  S16  1  0.67015155  0.16480084  0.34876322  1
  S  S17  1  0.66666700  0.66666700  0.34737684  1
  S  S18  1  0.16413152  0.17299380  0.44975981  1
  S  S19  1  0.17299380  0.66287568  0.44975981  1
  S  S20  1  0.66666700  0.66666700  0.44844161  1
