# generated using pymatgen
data_Ni4Pd3(S3O4)2
_symmetry_space_group_name_H-M   'P 1'
_cell_length_a   5.91307461
_cell_length_b   5.91307461
_cell_length_c   30.00000000
_cell_angle_alpha   90.00000000
_cell_angle_beta   90.00000000
_cell_angle_gamma   59.99999320
_symmetry_Int_Tables_number   1
_chemical_formula_structural   Ni4Pd3(S3O4)2
_chemical_formula_sum   'Ni4 Pd3 S6 O8'
_cell_volume   908.40302981
_cell_formula_units_Z   1
loop_
 _symmetry_equiv_pos_site_id
 _symmetry_equiv_pos_as_xyz
  1  'x, y, z'
loop_
 _atom_site_type_symbol
 _atom_site_label
 _atom_site_symmetry_multiplicity
 _atom_site_fract_x
 _atom_site_fract_y
 _atom_site_fract_z
 _atom_site_occupancy
  Ni  Ni0  1  0.00000000  0.00000000  0.57819830  1
  Ni  Ni1  1  0.99972898  0.50008170  0.57829257  1
  Ni  Ni2  1  0.50018932  0.99972898  0.57829257  1
  Ni  Ni3  1  0.50008170  0.50018932  0.57829257  1
  Pd  Pd4  1  0.66666700  0.66666700  0.41544950  1
  Pd  Pd5  1  0.33333300  0.33333300  0.41661756  1
  Pd  Pd6  1  0.00000000  0.00000000  0.41665508  1
  S  S7  1  0.33682982  0.66672676  0.45985314  1
  S  S8  1  0.00304299  0.66665249  0.37205093  1
  S  S9  1  0.66665249  0.33030452  0.37205093  1
  S  S10  1  0.33030452  0.00304299  0.37205093  1
  S  S11  1  0.99644342  0.33682982  0.45985314  1
  S  S12  1  0.66672676  0.99644342  0.45985314  1
  O  O13  1  0.33333300  0.33333300  0.60778604  1
  O  O14  1  0.33253504  0.83481459  0.60794887  1
  O  O15  1  0.66666700  0.66666700  0.54847819  1
  O  O16  1  0.66670766  0.16828325  0.54838726  1
  O  O17  1  0.16501009  0.66670766  0.54838726  1
  O  O18  1  0.16828325  0.16501009  0.54838726  1
  O  O19  1  0.83264937  0.33253504  0.60794887  1
  O  O20  1  0.83481459  0.83264937  0.60794887  1
