# generated using pymatgen
data_Ni7Pd4(Se4O7)2
_symmetry_space_group_name_H-M   'P 1'
_cell_length_a   7.48234501
_cell_length_b   7.48234512
_cell_length_c   30.00000000
_cell_angle_alpha   90.00000000
_cell_angle_beta   90.00000000
_cell_angle_gamma   59.99999465
_symmetry_Int_Tables_number   1
_chemical_formula_structural   Ni7Pd4(Se4O7)2
_chemical_formula_sum   'Ni7 Pd4 Se8 O14'
_cell_volume   1454.54555946
_cell_formula_units_Z   1
loop_
 _symmetry_equiv_pos_site_id
 _symmetry_equiv_pos_as_xyz
  1  'x, y, z'
loop_
 _atom_site_type_symbol
 _atom_site_label
 _atom_site_symmetry_multiplicity
 _atom_site_fract_x
 _atom_site_fract_y
 _atom_site_fract_z
 _atom_site_occupancy
  Ni  Ni0  1  0.00000000  0.00000000  0.57854287  1
  Ni  Ni1  1  0.14338457  0.28575486  0.57827988  1
  Ni  Ni2  1  0.57086057  0.14338457  0.57827988  1
  Ni  Ni3  1  0.28575486  0.57086057  0.57827988  1
  Ni  Ni4  1  0.71398084  0.42871909  0.57829585  1
  Ni  Ni5  1  0.42871909  0.85730007  0.57829585  1
  Ni  Ni6  1  0.85730007  0.71398084  0.57829585  1
  Pd  Pd7  1  0.50111392  0.00068368  0.41890840  1
  Pd  Pd8  1  0.49820240  0.50111392  0.41890840  1
  Pd  Pd9  1  0.00000000  0.00000000  0.41952732  1
  Pd  Pd10  1  0.00068368  0.49820240  0.41890840  1
  Se  Se11  1  0.66822769  0.16823036  0.37525888  1
  Se  Se12  1  0.16354295  0.66822769  0.37525888  1
  Se  Se13  1  0.16823036  0.16354295  0.37525888  1
  Se  Se14  1  0.33333300  0.33333300  0.46213392  1
  Se  Se15  1  0.66666700  0.66666700  0.37547981  1
  Se  Se16  1  0.33524296  0.83412404  0.46170906  1
  Se  Se17  1  0.83063199  0.33524296  0.46170906  1
  Se  Se18  1  0.83412404  0.83063199  0.46170906  1
  O  O19  1  0.90561357  0.47636613  0.60975152  1
  O  O20  1  0.61802029  0.90561357  0.60975152  1
  O  O21  1  0.04806936  0.76088387  0.60983631  1
  O  O22  1  0.33333300  0.33333300  0.61006077  1
  O  O23  1  0.19104677  0.04806936  0.60983631  1
  O  O24  1  0.80918351  0.95325644  0.54643227  1
  O  O25  1  0.38085287  0.09512296  0.54625128  1
  O  O26  1  0.66666700  0.66666700  0.54620301  1
  O  O27  1  0.23756005  0.80918351  0.54643227  1
  O  O28  1  0.52402418  0.38085287  0.54625128  1
  O  O29  1  0.09512296  0.52402418  0.54625128  1
  O  O30  1  0.95325644  0.23756005  0.54643227  1
  O  O31  1  0.47636613  0.61802029  0.60975152  1
  O  O32  1  0.76088387  0.19104677  0.60983631  1
