# generated using pymatgen
data_Hf4Mo7(Se4O7)2
_symmetry_space_group_name_H-M   'P 1'
_cell_length_a   7.40676613
_cell_length_b   7.40676684
_cell_length_c   30.00000000
_cell_angle_alpha   90.00000000
_cell_angle_beta   90.00000000
_cell_angle_gamma   60.00000630
_symmetry_Int_Tables_number   1
_chemical_formula_structural   Hf4Mo7(Se4O7)2
_chemical_formula_sum   'Hf4 Mo7 Se8 O14'
_cell_volume   1425.30963011
_cell_formula_units_Z   1
loop_
 _symmetry_equiv_pos_site_id
 _symmetry_equiv_pos_as_xyz
  1  'x, y, z'
loop_
 _atom_site_type_symbol
 _atom_site_label
 _atom_site_symmetry_multiplicity
 _atom_site_fract_x
 _atom_site_fract_y
 _atom_site_fract_z
 _atom_site_occupancy
  Hf  Hf0  1  0.00000000  0.00000000  0.60323547  1
  Hf  Hf1  1  0.99995467  0.49945071  0.60373931  1
  Hf  Hf2  1  0.50059462  0.99995467  0.60373931  1
  Hf  Hf3  1  0.49945071  0.50059462  0.60373931  1
  Mo  Mo4  1  0.71434831  0.85703404  0.40695133  1
  Mo  Mo5  1  0.85703404  0.42861765  0.40695133  1
  Mo  Mo6  1  0.57144711  0.28558944  0.40698047  1
  Mo  Mo7  1  0.14296346  0.57144711  0.40698047  1
  Mo  Mo8  1  0.28558944  0.14296346  0.40698047  1
  Mo  Mo9  1  0.00000000  0.00000000  0.40663586  1
  Mo  Mo10  1  0.42861765  0.71434831  0.40695133  1
  Se  Se11  1  0.66666700  0.66666700  0.65915109  1
  Se  Se12  1  0.16615071  0.66720629  0.65906071  1
  Se  Se13  1  0.16664400  0.16615071  0.65906071  1
  Se  Se14  1  0.66666700  0.66666700  0.54844869  1
  Se  Se15  1  0.66562828  0.16889972  0.54852258  1
  Se  Se16  1  0.16547300  0.66562828  0.54852258  1
  Se  Se17  1  0.16889972  0.16547300  0.54852258  1
  Se  Se18  1  0.66720629  0.16664400  0.65906071  1
  O  O19  1  0.47595883  0.90507608  0.44849290  1
  O  O20  1  0.61896509  0.47595883  0.44849290  1
  O  O21  1  0.19028741  0.76277363  0.44823798  1
  O  O22  1  0.33333300  0.33333300  0.44859507  1
  O  O23  1  0.04693897  0.19028741  0.44823798  1
  O  O24  1  0.76145486  0.04762253  0.36536010  1
  O  O25  1  0.19092261  0.76145486  0.36536010  1
  O  O26  1  0.47621813  0.90481599  0.36552050  1
  O  O27  1  0.61896588  0.47621813  0.36552050  1
  O  O28  1  0.33333300  0.33333300  0.36555317  1
  O  O29  1  0.04762253  0.19092261  0.36536010  1
  O  O30  1  0.90507608  0.61896509  0.44849290  1
  O  O31  1  0.90481599  0.61896588  0.36552050  1
  O  O32  1  0.76277363  0.04693897  0.44823798  1
