# generated using pymatgen
data_Zr3Ge4(Te3S4)2
_symmetry_space_group_name_H-M   'P 1'
_cell_length_a   6.83762752
_cell_length_b   6.83762700
_cell_length_c   30.00000000
_cell_angle_alpha   90.00000000
_cell_angle_beta   90.00000000
_cell_angle_gamma   59.99999770
_symmetry_Int_Tables_number   1
_chemical_formula_structural   Zr3Ge4(Te3S4)2
_chemical_formula_sum   'Zr3 Ge4 Te6 S8'
_cell_volume   1214.68235101
_cell_formula_units_Z   1
loop_
 _symmetry_equiv_pos_site_id
 _symmetry_equiv_pos_as_xyz
  1  'x, y, z'
loop_
 _atom_site_type_symbol
 _atom_site_label
 _atom_site_symmetry_multiplicity
 _atom_site_fract_x
 _atom_site_fract_y
 _atom_site_fract_z
 _atom_site_occupancy
  Zr  Zr0  1  0.66667287  0.66668806  0.37696979  1
  Zr  Zr1  1  0.33336082  0.33330144  0.38427095  1
  Zr  Zr2  1  0.00004198  0.99999976  0.38155442  1
  Ge  Ge3  1  0.00000441  0.00000022  0.60419375  1
  Ge  Ge4  1  0.99976169  0.50045656  0.60395230  1
  Ge  Ge5  1  0.49979073  0.99975854  0.60395220  1
  Ge  Ge6  1  0.50046034  0.49978587  0.60395212  1
  Te  Te7  1  0.33884021  0.99183722  0.44243787  1
  Te  Te8  1  0.00690125  0.66432716  0.31893097  1
  Te  Te9  1  0.66435375  0.32880620  0.31893136  1
  Te  Te10  1  0.32883279  0.00686739  0.31893886  1
  Te  Te11  1  0.99185255  0.66936361  0.44244376  1
  Te  Te12  1  0.66939400  0.33881011  0.44244457  1
  S  S13  1  0.33333755  0.33333270  0.65081710  1
  S  S14  1  0.33356451  0.83508666  0.65090202  1
  S  S15  1  0.66667178  0.66666664  0.55683239  1
  S  S16  1  0.66698325  0.16237067  0.55713897  1
  S  S17  1  0.17065514  0.66697981  0.55713896  1
  S  S18  1  0.16237332  0.17065053  0.55713920  1
  S  S19  1  0.83135471  0.33356049  0.65090227  1
  S  S20  1  0.83509234  0.83135034  0.65090216  1
