# generated using pymatgen
data_Ge7Pt4(Se4O7)2
_symmetry_space_group_name_H-M   'P 1'
_cell_length_a   7.58224117
_cell_length_b   7.58224167
_cell_length_c   30.00000000
_cell_angle_alpha   90.00000000
_cell_angle_beta   90.00000000
_cell_angle_gamma   60.00000054
_symmetry_Int_Tables_number   1
_chemical_formula_structural   Ge7Pt4(Se4O7)2
_chemical_formula_sum   'Ge7 Pt4 Se8 O14'
_cell_volume   1493.64402295
_cell_formula_units_Z   1
loop_
 _symmetry_equiv_pos_site_id
 _symmetry_equiv_pos_as_xyz
  1  'x, y, z'
loop_
 _atom_site_type_symbol
 _atom_site_label
 _atom_site_symmetry_multiplicity
 _atom_site_fract_x
 _atom_site_fract_y
 _atom_site_fract_z
 _atom_site_occupancy
  Ge  Ge0  1  0.00000000  0.00000000  0.58578024  1
  Ge  Ge1  1  0.28587534  0.14269550  0.58646332  1
  Ge  Ge2  1  0.14269550  0.57142915  0.58646332  1
  Ge  Ge3  1  0.57142915  0.28587534  0.58646332  1
  Ge  Ge4  1  0.42853807  0.71431156  0.58582783  1
  Ge  Ge5  1  0.85715037  0.42853807  0.58582783  1
  Ge  Ge6  1  0.71431156  0.85715037  0.58582783  1
  Pt  Pt7  1  0.50014003  0.99985971  0.40659250  1
  Pt  Pt8  1  0.50000026  0.50014003  0.40659250  1
  Pt  Pt9  1  0.00000000  0.00000000  0.40687507  1
  Pt  Pt10  1  0.99985971  0.50000026  0.40659250  1
  Se  Se11  1  0.66714959  0.16652354  0.36383024  1
  Se  Se12  1  0.16632787  0.66714959  0.36383024  1
  Se  Se13  1  0.16652354  0.16632787  0.36383024  1
  Se  Se14  1  0.33333300  0.33333300  0.44884101  1
  Se  Se15  1  0.66666700  0.66666700  0.36373262  1
  Se  Se16  1  0.33375170  0.83331903  0.44929990  1
  Se  Se17  1  0.83292827  0.33375170  0.44929990  1
  Se  Se18  1  0.83331903  0.83292827  0.44929990  1
  O  O19  1  0.66666700  0.66666700  0.61919275  1
  O  O20  1  0.09438287  0.38102140  0.61966968  1
  O  O21  1  0.95179511  0.81015186  0.61936823  1
  O  O22  1  0.52459574  0.09438287  0.61966968  1
  O  O23  1  0.23805304  0.95179511  0.61936823  1
  O  O24  1  0.76124454  0.04863025  0.55253776  1
  O  O25  1  0.90548813  0.61838279  0.55253776  1
  O  O26  1  0.47612909  0.90548813  0.55253776  1
  O  O27  1  0.61838279  0.47612909  0.55253776  1
  O  O28  1  0.19012521  0.76124454  0.55253776  1
  O  O29  1  0.33333300  0.33333300  0.55330569  1
  O  O30  1  0.04863025  0.19012521  0.55253776  1
  O  O31  1  0.81015186  0.23805304  0.61936823  1
  O  O32  1  0.38102140  0.52459574  0.61966968  1
