# generated using pymatgen
data_Zr3Ti4(Te3Se4)2
_symmetry_space_group_name_H-M   'P 1'
_cell_length_a   6.88744582
_cell_length_b   6.88744600
_cell_length_c   30.00000000
_cell_angle_alpha   90.00000000
_cell_angle_beta   90.00000000
_cell_angle_gamma   59.99999915
_symmetry_Int_Tables_number   1
_chemical_formula_structural   Zr3Ti4(Te3Se4)2
_chemical_formula_sum   'Zr3 Ti4 Te6 Se8'
_cell_volume   1232.44709456
_cell_formula_units_Z   1
loop_
 _symmetry_equiv_pos_site_id
 _symmetry_equiv_pos_as_xyz
  1  'x, y, z'
loop_
 _atom_site_type_symbol
 _atom_site_label
 _atom_site_symmetry_multiplicity
 _atom_site_fract_x
 _atom_site_fract_y
 _atom_site_fract_z
 _atom_site_occupancy
  Zr  Zr0  1  0.66666700  0.66666700  0.37512778  1
  Zr  Zr1  1  0.33333300  0.33333300  0.38558888  1
  Zr  Zr2  1  0.00000000  0.00000000  0.38731915  1
  Ti  Ti3  1  0.00000000  0.00000000  0.60820861  1
  Ti  Ti4  1  0.99966921  0.50110376  0.61058914  1
  Ti  Ti5  1  0.49922704  0.99966921  0.61058914  1
  Ti  Ti6  1  0.50110376  0.49922704  0.61058914  1
  Te  Te7  1  0.34650830  0.98832639  0.44373700  1
  Te  Te8  1  0.01124610  0.66847392  0.32124725  1
  Te  Te9  1  0.66847392  0.32027998  0.32124725  1
  Te  Te10  1  0.32027998  0.01124610  0.32124725  1
  Te  Te11  1  0.98832639  0.66516531  0.44373700  1
  Te  Te12  1  0.66516531  0.34650830  0.44373700  1
  Se  Se13  1  0.16587159  0.66840638  0.66395932  1
  Se  Se14  1  0.16572303  0.16587159  0.66395932  1
  Se  Se15  1  0.66666700  0.66666700  0.55653063  1
  Se  Se16  1  0.66467797  0.16384645  0.55607247  1
  Se  Se17  1  0.17147658  0.66467797  0.55607247  1
  Se  Se18  1  0.16384645  0.17147658  0.55607247  1
  Se  Se19  1  0.66666700  0.66666700  0.66463144  1
  Se  Se20  1  0.66840638  0.16572303  0.66395932  1
