# generated using pymatgen
data_Ni4Sn3O14
_symmetry_space_group_name_H-M   'P 1'
_cell_length_a   5.62773794
_cell_length_b   5.62773700
_cell_length_c   30.00000000
_cell_angle_alpha   90.00000000
_cell_angle_beta   90.00000000
_cell_angle_gamma   59.99999962
_symmetry_Int_Tables_number   1
_chemical_formula_structural   Ni4Sn3O14
_chemical_formula_sum   'Ni4 Sn3 O14'
_cell_volume   822.84785976
_cell_formula_units_Z   1
loop_
 _symmetry_equiv_pos_site_id
 _symmetry_equiv_pos_as_xyz
  1  'x, y, z'
loop_
 _atom_site_type_symbol
 _atom_site_label
 _atom_site_symmetry_multiplicity
 _atom_site_fract_x
 _atom_site_fract_y
 _atom_site_fract_z
 _atom_site_occupancy
  Ni  Ni0  1  0.00000000  0.00000000  0.57828419  1
  Ni  Ni1  1  0.99992366  0.50023008  0.57822528  1
  Ni  Ni2  1  0.49984627  0.99992366  0.57822528  1
  Ni  Ni3  1  0.50023008  0.49984627  0.57822528  1
  Sn  Sn4  1  0.66666700  0.66666700  0.42421701  1
  Sn  Sn5  1  0.33333300  0.33333300  0.42411318  1
  Sn  Sn6  1  0.00000000  0.00000000  0.42410043  1
  O  O7  1  0.33369916  0.99962087  0.45731665  1
  O  O8  1  0.66666477  0.00012172  0.39073257  1
  O  O9  1  0.33321350  0.66666477  0.39073257  1
  O  O10  1  0.00012172  0.33321350  0.39073257  1
  O  O11  1  0.83296994  0.83368093  0.60987979  1
  O  O12  1  0.66667997  0.33369916  0.45731665  1
  O  O13  1  0.33333300  0.33333300  0.60989112  1
  O  O14  1  0.33334813  0.83296994  0.60987979  1
  O  O15  1  0.66666700  0.66666700  0.54649850  1
  O  O16  1  0.66651288  0.16571410  0.54668924  1
  O  O17  1  0.16777402  0.66651288  0.54668924  1
  O  O18  1  0.16571410  0.16777402  0.54668924  1
  O  O19  1  0.83368093  0.33334813  0.60987979  1
  O  O20  1  0.99962087  0.66667997  0.45731665  1
