# generated using pymatgen
data_Pd4W7(Se4O7)2
_symmetry_space_group_name_H-M   'P 1'
_cell_length_a   7.47773714
_cell_length_b   7.47773713
_cell_length_c   30.00000000
_cell_angle_alpha   90.00000000
_cell_angle_beta   90.00000000
_cell_angle_gamma   60.00000461
_symmetry_Int_Tables_number   1
_chemical_formula_structural   Pd4W7(Se4O7)2
_chemical_formula_sum   'Pd4 W7 Se8 O14'
_cell_volume   1452.75471988
_cell_formula_units_Z   1
loop_
 _symmetry_equiv_pos_site_id
 _symmetry_equiv_pos_as_xyz
  1  'x, y, z'
loop_
 _atom_site_type_symbol
 _atom_site_label
 _atom_site_symmetry_multiplicity
 _atom_site_fract_x
 _atom_site_fract_y
 _atom_site_fract_z
 _atom_site_occupancy
  Pd  Pd0  1  0.00000000  0.00000000  0.59046426  1
  Pd  Pd1  1  0.00028606  0.49967649  0.59081159  1
  Pd  Pd2  1  0.50003745  0.00028606  0.59081159  1
  Pd  Pd3  1  0.49967649  0.50003745  0.59081159  1
  W  W4  1  0.85727152  0.71413044  0.40677920  1
  W  W5  1  0.42859804  0.85727152  0.40677920  1
  W  W6  1  0.28561956  0.57154375  0.40696478  1
  W  W7  1  0.57154375  0.14283670  0.40696478  1
  W  W8  1  0.14283670  0.28561956  0.40696478  1
  W  W9  1  0.00000000  0.00000000  0.40702437  1
  W  W10  1  0.71413044  0.42859804  0.40677920  1
  Se  Se11  1  0.83339306  0.33276660  0.63431886  1
  Se  Se12  1  0.33333300  0.33333300  0.63449946  1
  Se  Se13  1  0.33276660  0.83383933  0.63431886  1
  Se  Se14  1  0.66666700  0.66666700  0.54794747  1
  Se  Se15  1  0.66625994  0.16723570  0.54728131  1
  Se  Se16  1  0.16650536  0.66625994  0.54728131  1
  Se  Se17  1  0.16723570  0.16650536  0.54728131  1
  Se  Se18  1  0.83383933  0.83339306  0.63431886  1
  O  O19  1  0.66666700  0.66666700  0.44795865  1
  O  O20  1  0.23860161  0.80977695  0.44836306  1
  O  O21  1  0.52360201  0.38150726  0.44834324  1
  O  O22  1  0.09489072  0.52360201  0.44834324  1
  O  O23  1  0.95162144  0.23860161  0.44836306  1
  O  O24  1  0.80970242  0.95253098  0.36552116  1
  O  O25  1  0.52353652  0.38092289  0.36549942  1
  O  O26  1  0.66666700  0.66666700  0.36529496  1
  O  O27  1  0.23776660  0.80970242  0.36552116  1
  O  O28  1  0.09554059  0.52353652  0.36549942  1
  O  O29  1  0.95253098  0.23776660  0.36552116  1
  O  O30  1  0.38150726  0.09489072  0.44834324  1
  O  O31  1  0.38092289  0.09554059  0.36549942  1
  O  O32  1  0.80977695  0.95162144  0.44836306  1
