# generated using pymatgen
data_Zr4Ge7(Se4O7)2
_symmetry_space_group_name_H-M   'P 1'
_cell_length_a   7.63064060
_cell_length_b   7.63063986
_cell_length_c   30.00000000
_cell_angle_alpha   90.00000000
_cell_angle_beta   90.00000000
_cell_angle_gamma   59.99999965
_symmetry_Int_Tables_number   1
_chemical_formula_structural   Zr4Ge7(Se4O7)2
_chemical_formula_sum   'Zr4 Ge7 Se8 O14'
_cell_volume   1512.77326439
_cell_formula_units_Z   1
loop_
 _symmetry_equiv_pos_site_id
 _symmetry_equiv_pos_as_xyz
  1  'x, y, z'
loop_
 _atom_site_type_symbol
 _atom_site_label
 _atom_site_symmetry_multiplicity
 _atom_site_fract_x
 _atom_site_fract_y
 _atom_site_fract_z
 _atom_site_occupancy
  Zr  Zr0  1  0.00000000  0.00000000  0.39601119  1
  Zr  Zr1  1  0.49982830  0.99991172  0.39584319  1
  Zr  Zr2  1  0.50025997  0.49982830  0.39584319  1
  Zr  Zr3  1  0.99991172  0.50025997  0.39584319  1
  Ge  Ge4  1  0.85715242  0.71428455  0.58691949  1
  Ge  Ge5  1  0.00000000  0.00000000  0.58685790  1
  Ge  Ge6  1  0.42856304  0.85715242  0.58691949  1
  Ge  Ge7  1  0.57146792  0.14273053  0.58728051  1
  Ge  Ge8  1  0.28580156  0.57146792  0.58728051  1
  Ge  Ge9  1  0.14273053  0.28580156  0.58728051  1
  Ge  Ge10  1  0.71428455  0.42856304  0.58691949  1
  Se  Se11  1  0.33333300  0.33333300  0.44793610  1
  Se  Se12  1  0.66666700  0.66666700  0.34322537  1
  Se  Se13  1  0.66689839  0.16641928  0.34337948  1
  Se  Se14  1  0.16668333  0.66689839  0.34337948  1
  Se  Se15  1  0.16641928  0.16668333  0.34337948  1
  Se  Se16  1  0.33355354  0.83320622  0.44827815  1
  Se  Se17  1  0.83323924  0.33355354  0.44827815  1
  Se  Se18  1  0.83320622  0.83323924  0.44827815  1
  O  O19  1  0.66666700  0.66666700  0.62007541  1
  O  O20  1  0.95205512  0.23805373  0.62016280  1
  O  O21  1  0.09475906  0.52425473  0.62034062  1
  O  O22  1  0.38098621  0.09475906  0.62034062  1
  O  O23  1  0.23805373  0.80989115  0.62016280  1
  O  O24  1  0.04821478  0.76150092  0.55383546  1
  O  O25  1  0.90517251  0.47618354  0.55385287  1
  O  O26  1  0.61864395  0.90517251  0.55385287  1
  O  O27  1  0.76150092  0.19028431  0.55383546  1
  O  O28  1  0.47618354  0.61864395  0.55385287  1
  O  O29  1  0.33333300  0.33333300  0.55432931  1
  O  O30  1  0.19028431  0.04821478  0.55383546  1
  O  O31  1  0.80989115  0.95205512  0.62016280  1
  O  O32  1  0.52425473  0.38098621  0.62034062  1
