# generated using pymatgen
data_HfZrTe4
_symmetry_space_group_name_H-M   'P 1'
_cell_length_a   6.78065210
_cell_length_b   6.78065210
_cell_length_c   30.00000000
_cell_angle_alpha   90.00000000
_cell_angle_beta   90.00000000
_cell_angle_gamma   59.99999904
_symmetry_Int_Tables_number   1
_chemical_formula_structural   HfZrTe4
_chemical_formula_sum   'Hf3 Zr3 Te12'
_cell_volume   1194.52379836
_cell_formula_units_Z   3
loop_
 _symmetry_equiv_pos_site_id
 _symmetry_equiv_pos_as_xyz
  1  'x, y, z'
loop_
 _atom_site_type_symbol
 _atom_site_label
 _atom_site_symmetry_multiplicity
 _atom_site_fract_x
 _atom_site_fract_y
 _atom_site_fract_z
 _atom_site_occupancy
  Hf  Hf0  1  0.00000000  0.00000000  0.61396641  1
  Hf  Hf1  1  0.33333300  0.33333300  0.61396641  1
  Hf  Hf2  1  0.66666700  0.66666700  0.61396641  1
  Zr  Zr3  1  0.66666700  0.66666700  0.38551646  1
  Zr  Zr4  1  0.33333300  0.33333300  0.38551646  1
  Zr  Zr5  1  0.00000000  0.00000000  0.38551646  1
  Te  Te6  1  0.33333300  0.00000000  0.44739431  1
  Te  Te7  1  0.00000000  0.66666700  0.32328717  1
  Te  Te8  1  0.66666700  0.33333300  0.32328717  1
  Te  Te9  1  0.33333300  0.00000000  0.32328717  1
  Te  Te10  1  0.66666700  0.00000000  0.67531706  1
  Te  Te11  1  0.33333300  0.66666700  0.67531706  1
  Te  Te12  1  0.00000000  0.33333300  0.67531706  1
  Te  Te13  1  0.66666700  0.00000000  0.55302959  1
  Te  Te14  1  0.33333300  0.66666700  0.55302959  1
  Te  Te15  1  0.00000000  0.33333300  0.55302959  1
  Te  Te16  1  0.66666700  0.33333300  0.44739431  1
  Te  Te17  1  0.00000000  0.66666700  0.44739431  1
