# generated using pymatgen
data_Te6Mo4W3S8
_symmetry_space_group_name_H-M   'P 1'
_cell_length_a   6.25852283
_cell_length_b   6.25852300
_cell_length_c   30.00000000
_cell_angle_alpha   90.00000000
_cell_angle_beta   90.00000000
_cell_angle_gamma   60.00000438
_symmetry_Int_Tables_number   1
_chemical_formula_structural   Te6Mo4W3S8
_chemical_formula_sum   'Te6 Mo4 W3 S8'
_cell_volume   1017.64335003
_cell_formula_units_Z   1
loop_
 _symmetry_equiv_pos_site_id
 _symmetry_equiv_pos_as_xyz
  1  'x, y, z'
loop_
 _atom_site_type_symbol
 _atom_site_label
 _atom_site_symmetry_multiplicity
 _atom_site_fract_x
 _atom_site_fract_y
 _atom_site_fract_z
 _atom_site_occupancy
  Te  Te0  1  0.66655666  0.99814632  0.44073170  1
  Te  Te1  1  0.99814632  0.33529702  0.44073170  1
  Te  Te2  1  0.66669229  0.00070644  0.32184320  1
  Te  Te3  1  0.33260128  0.66669229  0.32184320  1
  Te  Te4  1  0.00070644  0.33260128  0.32184320  1
  Te  Te5  1  0.33529702  0.66655666  0.44073170  1
  Mo  Mo6  1  0.00000000  0.00000000  0.61043870  1
  Mo  Mo7  1  0.49931862  0.50081254  0.61039500  1
  Mo  Mo8  1  0.50081254  0.99986884  0.61039500  1
  Mo  Mo9  1  0.99986884  0.49931862  0.61039500  1
  W  W10  1  0.00000000  0.00000000  0.38150391  1
  W  W11  1  0.33333300  0.33333300  0.38147716  1
  W  W12  1  0.66666700  0.66666700  0.38101714  1
  S  S13  1  0.66666700  0.66666700  0.55753278  1
  S  S14  1  0.16734399  0.16608804  0.66310279  1
  S  S15  1  0.16608804  0.66656898  0.66310279  1
  S  S16  1  0.16518886  0.66658535  0.55785742  1
  S  S17  1  0.66666700  0.66666700  0.66307202  1
  S  S18  1  0.16822679  0.16518886  0.55785742  1
  S  S19  1  0.66658535  0.16822679  0.55785742  1
  S  S20  1  0.66656898  0.16734399  0.66310279  1
