# generated using pymatgen
data_Zr3Sn4(Te3O4)2
_symmetry_space_group_name_H-M   'P 1'
_cell_length_a   6.61883200
_cell_length_b   6.61883230
_cell_length_c   30.00000000
_cell_angle_alpha   90.00000000
_cell_angle_beta   90.00000000
_cell_angle_gamma   60.00000149
_symmetry_Int_Tables_number   1
_chemical_formula_structural   Zr3Sn4(Te3O4)2
_chemical_formula_sum   'Zr3 Sn4 Te6 O8'
_cell_volume   1138.18964022
_cell_formula_units_Z   1
loop_
 _symmetry_equiv_pos_site_id
 _symmetry_equiv_pos_as_xyz
  1  'x, y, z'
loop_
 _atom_site_type_symbol
 _atom_site_label
 _atom_site_symmetry_multiplicity
 _atom_site_fract_x
 _atom_site_fract_y
 _atom_site_fract_z
 _atom_site_occupancy
  Zr  Zr0  1  0.66707874  0.66656171  0.38327601  1
  Zr  Zr1  1  0.33364367  0.33344601  0.38704104  1
  Zr  Zr2  1  0.00044480  0.99999988  0.38740529  1
  Sn  Sn3  1  0.00001262  0.99998913  0.58731766  1
  Sn  Sn4  1  0.99983031  0.49994318  0.58718628  1
  Sn  Sn5  1  0.50022810  0.99982092  0.58718382  1
  Sn  Sn6  1  0.49993240  0.50024337  0.58718787  1
  Te  Te7  1  0.99577368  0.33823215  0.44884520  1
  Te  Te8  1  0.66733810  0.00378830  0.32254491  1
  Te  Te9  1  0.32953641  0.66691428  0.32252555  1
  Te  Te10  1  0.00399419  0.32928382  0.32251805  1
  Te  Te11  1  0.66674550  0.99552855  0.44881709  1
  Te  Te12  1  0.33843831  0.66625425  0.44885569  1
  O  O13  1  0.33333598  0.33332889  0.61951255  1
  O  O14  1  0.33350876  0.83270778  0.61961576  1
  O  O15  1  0.66667181  0.66666140  0.55426179  1
  O  O16  1  0.66689606  0.16776583  0.55443140  1
  O  O17  1  0.16533991  0.66689538  0.55443286  1
  O  O18  1  0.16775930  0.16534098  0.55443284  1
  O  O19  1  0.83378723  0.33350454  0.61961782  1
  O  O20  1  0.83270414  0.83378965  0.61961650  1
