# generated using pymatgen
data_NiTe2MoSe2
_symmetry_space_group_name_H-M   'P 1'
_cell_length_a   6.13904700
_cell_length_b   6.13904755
_cell_length_c   30.00000000
_cell_angle_alpha   90.00000000
_cell_angle_beta   90.00000000
_cell_angle_gamma   59.99999756
_symmetry_Int_Tables_number   1
_chemical_formula_structural   NiTe2MoSe2
_chemical_formula_sum   'Ni3 Te6 Mo3 Se6'
_cell_volume   979.16037744
_cell_formula_units_Z   3
loop_
 _symmetry_equiv_pos_site_id
 _symmetry_equiv_pos_as_xyz
  1  'x, y, z'
loop_
 _atom_site_type_symbol
 _atom_site_label
 _atom_site_symmetry_multiplicity
 _atom_site_fract_x
 _atom_site_fract_y
 _atom_site_fract_z
 _atom_site_occupancy
  Ni  Ni0  1  0.00000000  0.00000000  0.60506640  1
  Ni  Ni1  1  0.33333300  0.33333300  0.60506640  1
  Ni  Ni2  1  0.66666700  0.66666700  0.60506640  1
  Te  Te3  1  0.00000000  0.33333300  0.43627885  1
  Te  Te4  1  0.66666700  0.00000000  0.31615553  1
  Te  Te5  1  0.33333300  0.66666700  0.31615553  1
  Te  Te6  1  0.00000000  0.33333300  0.31615553  1
  Te  Te7  1  0.33333300  0.66666700  0.43627885  1
  Te  Te8  1  0.66666700  0.00000000  0.43627885  1
  Mo  Mo9  1  0.00000000  0.00000000  0.37620488  1
  Mo  Mo10  1  0.33333300  0.33333300  0.37620488  1
  Mo  Mo11  1  0.66666700  0.66666700  0.37620488  1
  Se  Se12  1  0.33333300  0.00000000  0.64639147  1
  Se  Se13  1  0.66666700  0.00000000  0.56397387  1
  Se  Se14  1  0.33333300  0.66666700  0.56397387  1
  Se  Se15  1  0.00000000  0.33333300  0.56397387  1
  Se  Se16  1  0.66666700  0.33333300  0.64639147  1
  Se  Se17  1  0.00000000  0.66666700  0.64639147  1
