# generated using pymatgen
data_Hf3Ti4(Se3O4)2
_symmetry_space_group_name_H-M   'P 1'
_cell_length_a   6.17080300
_cell_length_b   6.17080311
_cell_length_c   30.00000000
_cell_angle_alpha   90.00000000
_cell_angle_beta   90.00000000
_cell_angle_gamma   59.99999524
_symmetry_Int_Tables_number   1
_chemical_formula_structural   Hf3Ti4(Se3O4)2
_chemical_formula_sum   'Hf3 Ti4 Se6 O8'
_cell_volume   989.31646589
_cell_formula_units_Z   1
loop_
 _symmetry_equiv_pos_site_id
 _symmetry_equiv_pos_as_xyz
  1  'x, y, z'
loop_
 _atom_site_type_symbol
 _atom_site_label
 _atom_site_symmetry_multiplicity
 _atom_site_fract_x
 _atom_site_fract_y
 _atom_site_fract_z
 _atom_site_occupancy
  Hf  Hf0  1  0.66666700  0.66666700  0.38842253  1
  Hf  Hf1  1  0.33333300  0.33333300  0.39520176  1
  Hf  Hf2  1  0.00000000  0.00000000  0.39512140  1
  Ti  Ti3  1  0.00000000  0.00000000  0.57952064  1
  Ti  Ti4  1  0.99376133  0.52747093  0.58737160  1
  Ti  Ti5  1  0.47876774  0.99376133  0.58737160  1
  Ti  Ti6  1  0.52747093  0.47876774  0.58737160  1
  Se  Se7  1  0.99351177  0.33987248  0.44955450  1
  Se  Se8  1  0.66663713  0.00639912  0.33608893  1
  Se  Se9  1  0.32696375  0.66663713  0.33608893  1
  Se  Se10  1  0.00639912  0.32696375  0.33608893  1
  Se  Se11  1  0.66661575  0.99351177  0.44955450  1
  Se  Se12  1  0.33987248  0.66661575  0.44955450  1
  O  O13  1  0.33333300  0.33333300  0.61553798  1
  O  O14  1  0.33354518  0.83259367  0.61735453  1
  O  O15  1  0.66666700  0.66666700  0.55478187  1
  O  O16  1  0.67334627  0.17241959  0.55309405  1
  O  O17  1  0.15423513  0.67334627  0.55309405  1
  O  O18  1  0.17241959  0.15423513  0.55309405  1
  O  O19  1  0.83386015  0.33354518  0.61735453  1
  O  O20  1  0.83259367  0.83386015  0.61735453  1
