# generated using pymatgen
data_Hf3Ti4(Se3O4)2
_symmetry_space_group_name_H-M   'P 1'
_cell_length_a   6.25216053
_cell_length_b   6.25216053
_cell_length_c   30.00000000
_cell_angle_alpha   90.00000000
_cell_angle_beta   90.00000000
_cell_angle_gamma   59.99999440
_symmetry_Int_Tables_number   1
_chemical_formula_structural   Hf3Ti4(Se3O4)2
_chemical_formula_sum   'Hf3 Ti4 Se6 O8'
_cell_volume   1015.57523654
_cell_formula_units_Z   1
loop_
 _symmetry_equiv_pos_site_id
 _symmetry_equiv_pos_as_xyz
  1  'x, y, z'
loop_
 _atom_site_type_symbol
 _atom_site_label
 _atom_site_symmetry_multiplicity
 _atom_site_fract_x
 _atom_site_fract_y
 _atom_site_fract_z
 _atom_site_occupancy
  Hf  Hf0  1  0.00000000  0.00000000  0.60301354  1
  Hf  Hf1  1  0.33333300  0.33333300  0.60375794  1
  Hf  Hf2  1  0.66666700  0.66666700  0.60303279  1
  Ti  Ti3  1  0.46356867  0.52848802  0.41255580  1
  Ti  Ti4  1  0.52848802  0.00794330  0.41255580  1
  Ti  Ti5  1  0.00000000  0.00000000  0.42064262  1
  Ti  Ti6  1  0.00794330  0.46356867  0.41255580  1
  Se  Se7  1  0.66763511  0.99910837  0.65791062  1
  Se  Se8  1  0.99910837  0.33325652  0.65791062  1
  Se  Se9  1  0.00117202  0.66536067  0.54899438  1
  Se  Se10  1  0.66536067  0.33346731  0.54899438  1
  Se  Se11  1  0.33346731  0.00117202  0.54899438  1
  Se  Se12  1  0.33325652  0.66763511  0.65791062  1
  O  O13  1  0.82450394  0.85408331  0.44728423  1
  O  O14  1  0.16756007  0.16450776  0.38283180  1
  O  O15  1  0.16450776  0.66793317  0.38283180  1
  O  O16  1  0.66793317  0.16756007  0.38283180  1
  O  O17  1  0.66666700  0.66666700  0.38628135  1
  O  O18  1  0.32141176  0.82450394  0.44728423  1
  O  O19  1  0.33333300  0.33333300  0.44443326  1
  O  O20  1  0.85408331  0.32141176  0.44728423  1
