# generated using pymatgen
data_TiTe4Mo
_symmetry_space_group_name_H-M   'P 1'
_cell_length_a   6.30843400
_cell_length_b   6.30843391
_cell_length_c   30.00000000
_cell_angle_alpha   90.00000000
_cell_angle_beta   90.00000000
_cell_angle_gamma   59.99999954
_symmetry_Int_Tables_number   1
_chemical_formula_structural   TiTe4Mo
_chemical_formula_sum   'Ti3 Te12 Mo3'
_cell_volume   1033.93921106
_cell_formula_units_Z   3
loop_
 _symmetry_equiv_pos_site_id
 _symmetry_equiv_pos_as_xyz
  1  'x, y, z'
loop_
 _atom_site_type_symbol
 _atom_site_label
 _atom_site_symmetry_multiplicity
 _atom_site_fract_x
 _atom_site_fract_y
 _atom_site_fract_z
 _atom_site_occupancy
  Ti  Ti0  1  0.66666700  0.66666700  0.37423672  1
  Ti  Ti1  1  0.33333300  0.33333300  0.37423672  1
  Ti  Ti2  1  0.00000000  0.00000000  0.37423672  1
  Te  Te3  1  0.66666700  0.00000000  0.68533602  1
  Te  Te4  1  0.00000000  0.33333300  0.43433725  1
  Te  Te5  1  0.66666700  0.00000000  0.31350209  1
  Te  Te6  1  0.33333300  0.66666700  0.31350209  1
  Te  Te7  1  0.00000000  0.33333300  0.31350209  1
  Te  Te8  1  0.66666700  0.00000000  0.43433725  1
  Te  Te9  1  0.33333300  0.66666700  0.68533602  1
  Te  Te10  1  0.00000000  0.33333300  0.68533602  1
  Te  Te11  1  0.66666700  0.00000000  0.56761033  1
  Te  Te12  1  0.33333300  0.66666700  0.56761033  1
  Te  Te13  1  0.00000000  0.33333300  0.56761033  1
  Te  Te14  1  0.33333300  0.66666700  0.43433725  1
  Mo  Mo15  1  0.66666700  0.66666700  0.62643958  1
  Mo  Mo16  1  0.33333300  0.33333300  0.62643958  1
  Mo  Mo17  1  0.00000000  0.00000000  0.62643958  1
