# generated using pymatgen
data_TiMo(SeS)2
_symmetry_space_group_name_H-M   'P 1'
_cell_length_a   3.33153170
_cell_length_b   3.33153200
_cell_length_c   30.00000000
_cell_angle_alpha   90.00000000
_cell_angle_beta   90.00000000
_cell_angle_gamma   59.99999703
_symmetry_Int_Tables_number   1
_chemical_formula_structural   TiMo(SeS)2
_chemical_formula_sum   'Ti1 Mo1 Se2 S2'
_cell_volume   288.36318428
_cell_formula_units_Z   1
loop_
 _symmetry_equiv_pos_site_id
 _symmetry_equiv_pos_as_xyz
  1  'x, y, z'
loop_
 _atom_site_type_symbol
 _atom_site_label
 _atom_site_symmetry_multiplicity
 _atom_site_fract_x
 _atom_site_fract_y
 _atom_site_fract_z
 _atom_site_occupancy
  Ti  Ti0  1  0.00000000  0.00000000  0.39029401  1
  Mo  Mo1  1  0.00000000  0.00000000  0.61503546  1
  Se  Se2  1  0.33333300  0.33333300  0.55969379  1
  Se  Se3  1  0.33333300  0.33333300  0.67040363  1
  S  S4  1  0.33333300  0.33333300  0.33998024  1
  S  S5  1  0.33333300  0.33333300  0.44040287  1
