# generated using pymatgen
data_NiWS4
_symmetry_space_group_name_H-M   'P 1'
_cell_length_a   5.66335586
_cell_length_b   5.66335586
_cell_length_c   30.00000000
_cell_angle_alpha   90.00000000
_cell_angle_beta   90.00000000
_cell_angle_gamma   60.00000169
_symmetry_Int_Tables_number   1
_chemical_formula_structural   NiWS4
_chemical_formula_sum   'Ni3 W3 S12'
_cell_volume   833.29657413
_cell_formula_units_Z   3
loop_
 _symmetry_equiv_pos_site_id
 _symmetry_equiv_pos_as_xyz
  1  'x, y, z'
loop_
 _atom_site_type_symbol
 _atom_site_label
 _atom_site_symmetry_multiplicity
 _atom_site_fract_x
 _atom_site_fract_y
 _atom_site_fract_z
 _atom_site_occupancy
  Ni  Ni0  1  0.00000000  0.00000000  0.59893462  1
  Ni  Ni1  1  0.33333300  0.33333300  0.59893462  1
  Ni  Ni2  1  0.66666700  0.66666700  0.59893462  1
  W  W3  1  0.66666700  0.66666700  0.38778697  1
  W  W4  1  0.33333300  0.33333300  0.38778697  1
  W  W5  1  0.00000000  0.00000000  0.38778697  1
  S  S6  1  0.33333300  0.00000000  0.43900801  1
  S  S7  1  0.00000000  0.66666700  0.33652020  1
  S  S8  1  0.66666700  0.33333300  0.33652020  1
  S  S9  1  0.33333300  0.00000000  0.33652020  1
  S  S10  1  0.00000000  0.33333300  0.63907821  1
  S  S11  1  0.66666700  0.00000000  0.63907821  1
  S  S12  1  0.33333300  0.66666700  0.63907821  1
  S  S13  1  0.00000000  0.66666700  0.55893298  1
  S  S14  1  0.66666700  0.33333300  0.55893298  1
  S  S15  1  0.33333300  0.00000000  0.55893298  1
  S  S16  1  0.66666700  0.33333300  0.43900801  1
  S  S17  1  0.00000000  0.66666700  0.43900801  1
