# generated using pymatgen
data_Zr4W7(S4O7)2
_symmetry_space_group_name_H-M   'P 1'
_cell_length_a   7.42676345
_cell_length_b   7.42676361
_cell_length_c   30.00000000
_cell_angle_alpha   90.00000000
_cell_angle_beta   90.00000000
_cell_angle_gamma   60.00000313
_symmetry_Int_Tables_number   1
_chemical_formula_structural   Zr4W7(S4O7)2
_chemical_formula_sum   'Zr4 W7 S8 O14'
_cell_volume   1433.01617500
_cell_formula_units_Z   1
loop_
 _symmetry_equiv_pos_site_id
 _symmetry_equiv_pos_as_xyz
  1  'x, y, z'
loop_
 _atom_site_type_symbol
 _atom_site_label
 _atom_site_symmetry_multiplicity
 _atom_site_fract_x
 _atom_site_fract_y
 _atom_site_fract_z
 _atom_site_occupancy
  Zr  Zr0  1  0.00000000  0.00000001  0.59602894  1
  Zr  Zr1  1  0.99992821  0.49998604  0.59604290  1
  Zr  Zr2  1  0.50008576  0.99992821  0.59604290  1
  Zr  Zr3  1  0.49998604  0.50008575  0.59604290  1
  W  W4  1  0.71432832  0.85703005  0.40642472  1
  W  W5  1  0.85702995  0.42864161  0.40642472  1
  W  W6  1  0.57141395  0.28563504  0.40644132  1
  W  W7  1  0.14295089  0.57141398  0.40644132  1
  W  W8  1  0.28563502  0.14295080  0.40644132  1
  W  W9  1  0.99999992  0.99999996  0.40621050  1
  W  W10  1  0.42864165  0.71432817  0.40642472  1
  S  S11  1  0.83331412  0.33333817  0.64388918  1
  S  S12  1  0.33333320  0.33333320  0.64388353  1
  S  S13  1  0.33333817  0.83334731  0.64388918  1
  S  S14  1  0.66666681  0.66666680  0.54832681  1
  S  S15  1  0.66639513  0.16712898  0.54855569  1
  S  S16  1  0.16647629  0.66639514  0.54855569  1
  S  S17  1  0.16712897  0.16647630  0.54855568  1
  S  S18  1  0.83334730  0.83331412  0.64388918  1
  O  O19  1  0.47600399  0.90499106  0.44803480  1
  O  O20  1  0.61900487  0.47600392  0.44803480  1
  O  O21  1  0.19038088  0.76254887  0.44783720  1
  O  O22  1  0.33333330  0.33333331  0.44809882  1
  O  O23  1  0.04707011  0.19038087  0.44783721  1
  O  O24  1  0.76161037  0.04759232  0.36473884  1
  O  O25  1  0.19079725  0.76161040  0.36473885  1
  O  O26  1  0.47619753  0.90481135  0.36484536  1
  O  O27  1  0.61899104  0.47619747  0.36484536  1
  O  O28  1  0.33333330  0.33333330  0.36486633  1
  O  O29  1  0.04759221  0.19079727  0.36473884  1
  O  O30  1  0.90499113  0.61900493  0.44803480  1
  O  O31  1  0.90481142  0.61899110  0.36484536  1
  O  O32  1  0.76254889  0.04707019  0.44783721  1
