# generated using pymatgen
data_Hf3Sn4(Se3O4)2
_symmetry_space_group_name_H-M   'P 1'
_cell_length_a   6.40875506
_cell_length_b   6.40875500
_cell_length_c   30.00000000
_cell_angle_alpha   90.00000000
_cell_angle_beta   90.00000000
_cell_angle_gamma   60.00000550
_symmetry_Int_Tables_number   1
_chemical_formula_structural   Hf3Sn4(Se3O4)2
_chemical_formula_sum   'Hf3 Sn4 Se6 O8'
_cell_volume   1067.08558558
_cell_formula_units_Z   1
loop_
 _symmetry_equiv_pos_site_id
 _symmetry_equiv_pos_as_xyz
  1  'x, y, z'
loop_
 _atom_site_type_symbol
 _atom_site_label
 _atom_site_symmetry_multiplicity
 _atom_site_fract_x
 _atom_site_fract_y
 _atom_site_fract_z
 _atom_site_occupancy
  Hf  Hf0  1  0.66666700  0.66666700  0.38888760  1
  Hf  Hf1  1  0.33333300  0.33333300  0.39505587  1
  Hf  Hf2  1  0.00000000  0.00000000  0.39582655  1
  Sn  Sn3  1  0.00000000  0.00000000  0.58621527  1
  Sn  Sn4  1  0.99986125  0.50033199  0.58602509  1
  Sn  Sn5  1  0.49980676  0.99986125  0.58602509  1
  Sn  Sn6  1  0.50033199  0.49980676  0.58602509  1
  Se  Se7  1  0.33955684  0.99444847  0.44860974  1
  Se  Se8  1  0.00513526  0.66725209  0.33768200  1
  Se  Se9  1  0.66725209  0.32761264  0.33768200  1
  Se  Se10  1  0.32761264  0.00513526  0.33768200  1
  Se  Se11  1  0.99444847  0.66599469  0.44860974  1
  Se  Se12  1  0.66599469  0.33955684  0.44860974  1
  O  O13  1  0.33333300  0.33333300  0.62009165  1
  O  O14  1  0.33360930  0.83353072  0.62017396  1
  O  O15  1  0.66666700  0.66666700  0.55179051  1
  O  O16  1  0.66691221  0.16544317  0.55200306  1
  O  O17  1  0.16764562  0.66691221  0.55200306  1
  O  O18  1  0.16544317  0.16764562  0.55200306  1
  O  O19  1  0.83285899  0.33360930  0.62017396  1
  O  O20  1  0.83353072  0.83285899  0.62017396  1
