# generated using pymatgen
data_Te8Pd11O14
_symmetry_space_group_name_H-M   'P 1'
_cell_length_a   8.11025879
_cell_length_b   8.11025847
_cell_length_c   30.00000000
_cell_angle_alpha   90.00000000
_cell_angle_beta   90.00000000
_cell_angle_gamma   60.00000066
_symmetry_Int_Tables_number   1
_chemical_formula_structural   Te8Pd11O14
_chemical_formula_sum   'Te8 Pd11 O14'
_cell_volume   1708.91828457
_cell_formula_units_Z   1
loop_
 _symmetry_equiv_pos_site_id
 _symmetry_equiv_pos_as_xyz
  1  'x, y, z'
loop_
 _atom_site_type_symbol
 _atom_site_label
 _atom_site_symmetry_multiplicity
 _atom_site_fract_x
 _atom_site_fract_y
 _atom_site_fract_z
 _atom_site_occupancy
  Te  Te0  1  0.82983415  0.33106653  0.46279574  1
  Te  Te1  1  0.33333300  0.33333300  0.46218457  1
  Te  Te2  1  0.33106653  0.83909831  0.46279574  1
  Te  Te3  1  0.66666700  0.66666700  0.37306210  1
  Te  Te4  1  0.66603458  0.17130648  0.37286626  1
  Te  Te5  1  0.16265994  0.66603458  0.37286626  1
  Te  Te6  1  0.17130648  0.16265994  0.37286626  1
  Te  Te7  1  0.83909831  0.82983415  0.46279574  1
  Pd  Pd8  1  0.49700463  0.50457999  0.41863645  1
  Pd  Pd9  1  0.50457999  0.99841538  0.41863645  1
  Pd  Pd10  1  0.99841538  0.49700463  0.41863645  1
  Pd  Pd11  1  0.00000000  0.00000000  0.41808308  1
  Pd  Pd12  1  0.00000000  0.00000000  0.57798559  1
  Pd  Pd13  1  0.28505195  0.14152040  0.57837254  1
  Pd  Pd14  1  0.14152040  0.57342764  0.57837254  1
  Pd  Pd15  1  0.57342764  0.28505195  0.57837254  1
  Pd  Pd16  1  0.42885391  0.71299336  0.57906412  1
  Pd  Pd17  1  0.85815273  0.42885391  0.57906412  1
  Pd  Pd18  1  0.71299336  0.85815273  0.57906412  1
  O  O19  1  0.76235425  0.04715425  0.54411887  1
  O  O20  1  0.04715425  0.19049150  0.54411887  1
  O  O21  1  0.33333300  0.33333300  0.54311095  1
  O  O22  1  0.19049150  0.76235425  0.54411887  1
  O  O23  1  0.62180486  0.47615294  0.54502036  1
  O  O24  1  0.95215340  0.81315589  0.61183432  1
  O  O25  1  0.09659153  0.38021321  0.61127501  1
  O  O26  1  0.66666700  0.66666700  0.61240570  1
  O  O27  1  0.81315589  0.23469071  0.61183432  1
  O  O28  1  0.47615294  0.90204220  0.54502036  1
  O  O29  1  0.52319526  0.09659153  0.61127501  1
  O  O30  1  0.23469071  0.95215340  0.61183432  1
  O  O31  1  0.90204220  0.62180486  0.54502036  1
  O  O32  1  0.38021321  0.52319526  0.61127501  1
