# generated using pymatgen
data_TiCrSe4
_symmetry_space_group_name_H-M   'P 1'
_cell_length_a   5.80470476
_cell_length_b   5.80470476
_cell_length_c   30.00000000
_cell_angle_alpha   90.00000000
_cell_angle_beta   90.00000000
_cell_angle_gamma   59.99999137
_symmetry_Int_Tables_number   1
_chemical_formula_structural   TiCrSe4
_chemical_formula_sum   'Ti3 Cr3 Se12'
_cell_volume   875.41124134
_cell_formula_units_Z   3
loop_
 _symmetry_equiv_pos_site_id
 _symmetry_equiv_pos_as_xyz
  1  'x, y, z'
loop_
 _atom_site_type_symbol
 _atom_site_label
 _atom_site_symmetry_multiplicity
 _atom_site_fract_x
 _atom_site_fract_y
 _atom_site_fract_z
 _atom_site_occupancy
  Ti  Ti0  1  0.66666700  0.66666700  0.38578626  1
  Ti  Ti1  1  0.33333300  0.33333300  0.38578626  1
  Ti  Ti2  1  0.00000000  0.00000000  0.38578626  1
  Cr  Cr3  1  0.00000000  0.00000000  0.61274465  1
  Cr  Cr4  1  0.33333300  0.33333300  0.61274465  1
  Cr  Cr5  1  0.66666700  0.66666700  0.61274465  1
  Se  Se6  1  0.33333300  0.00000000  0.44056718  1
  Se  Se7  1  0.00000000  0.66666700  0.33053379  1
  Se  Se8  1  0.66666700  0.33333300  0.33053379  1
  Se  Se9  1  0.33333300  0.00000000  0.33053379  1
  Se  Se10  1  0.00000000  0.66666700  0.66372725  1
  Se  Se11  1  0.66666700  0.33333300  0.66372725  1
  Se  Se12  1  0.33333300  0.00000000  0.66372725  1
  Se  Se13  1  0.00000000  0.66666700  0.56189487  1
  Se  Se14  1  0.66666700  0.33333300  0.56189487  1
  Se  Se15  1  0.33333300  0.00000000  0.56189487  1
  Se  Se16  1  0.66666700  0.33333300  0.44056718  1
  Se  Se17  1  0.00000000  0.66666700  0.44056718  1
