# generated using pymatgen
data_Ni3Mo4(S3O4)2
_symmetry_space_group_name_H-M   'P 1'
_cell_length_a   5.72331596
_cell_length_b   5.72331596
_cell_length_c   30.00000000
_cell_angle_alpha   90.00000000
_cell_angle_beta   90.00000000
_cell_angle_gamma   60.00000050
_symmetry_Int_Tables_number   1
_chemical_formula_structural   Ni3Mo4(S3O4)2
_chemical_formula_sum   'Ni3 Mo4 S6 O8'
_cell_volume   851.03482550
_cell_formula_units_Z   1
loop_
 _symmetry_equiv_pos_site_id
 _symmetry_equiv_pos_as_xyz
  1  'x, y, z'
loop_
 _atom_site_type_symbol
 _atom_site_label
 _atom_site_symmetry_multiplicity
 _atom_site_fract_x
 _atom_site_fract_y
 _atom_site_fract_z
 _atom_site_occupancy
  Ni  Ni0  1  0.00000000  0.00000000  0.58689685  1
  Ni  Ni1  1  0.33333300  0.33333300  0.58695381  1
  Ni  Ni2  1  0.66666700  0.66666700  0.58757657  1
  Mo  Mo3  1  0.50024045  0.49980651  0.40854777  1
  Mo  Mo4  1  0.49980651  0.99995304  0.40854777  1
  Mo  Mo5  1  0.00000000  0.00000000  0.40853148  1
  Mo  Mo6  1  0.99995304  0.50024045  0.40854777  1
  S  S7  1  0.66677421  0.00134009  0.62670691  1
  S  S8  1  0.00134009  0.33188571  0.62670691  1
  S  S9  1  0.99787286  0.66651733  0.54782792  1
  S  S10  1  0.66651733  0.33560981  0.54782792  1
  S  S11  1  0.33560981  0.99787286  0.54782792  1
  S  S12  1  0.33188571  0.66677421  0.62670691  1
  O  O13  1  0.66666520  0.16574976  0.44938430  1
  O  O14  1  0.16644362  0.16686471  0.36769839  1
  O  O15  1  0.16686471  0.66669267  0.36769839  1
  O  O16  1  0.66669267  0.16644362  0.36769839  1
  O  O17  1  0.66666700  0.66666700  0.36772910  1
  O  O18  1  0.16574976  0.16758604  0.44938430  1
  O  O19  1  0.16758604  0.66666520  0.44938430  1
  O  O20  1  0.66666700  0.66666700  0.44948930  1
