# generated using pymatgen
data_Hf3Pd4(Se3O4)2
_symmetry_space_group_name_H-M   'P 1'
_cell_length_a   6.36002100
_cell_length_b   6.36002010
_cell_length_c   30.00000000
_cell_angle_alpha   90.00000000
_cell_angle_beta   90.00000000
_cell_angle_gamma   60.00000050
_symmetry_Int_Tables_number   1
_chemical_formula_structural   Hf3Pd4(Se3O4)2
_chemical_formula_sum   'Hf3 Pd4 Se6 O8'
_cell_volume   1050.91823120
_cell_formula_units_Z   1
loop_
 _symmetry_equiv_pos_site_id
 _symmetry_equiv_pos_as_xyz
  1  'x, y, z'
loop_
 _atom_site_type_symbol
 _atom_site_label
 _atom_site_symmetry_multiplicity
 _atom_site_fract_x
 _atom_site_fract_y
 _atom_site_fract_z
 _atom_site_occupancy
  Hf  Hf0  1  0.00000000  0.00000000  0.59596568  1
  Hf  Hf1  1  0.33333300  0.33333300  0.59708733  1
  Hf  Hf2  1  0.66666700  0.66666700  0.59616053  1
  Pd  Pd3  1  0.50001086  0.49981771  0.41974383  1
  Pd  Pd4  1  0.49981771  0.00017143  0.41974383  1
  Pd  Pd5  1  0.00000000  0.00000000  0.41974847  1
  Pd  Pd6  1  0.00017143  0.50001086  0.41974383  1
  Se  Se7  1  0.66779575  0.33319426  0.65028440  1
  Se  Se8  1  0.99900999  0.66779575  0.65028440  1
  Se  Se9  1  0.66524243  0.00138960  0.54314912  1
  Se  Se10  1  0.33336797  0.66524243  0.54314912  1
  Se  Se11  1  0.00138960  0.33336797  0.54314912  1
  Se  Se12  1  0.33319426  0.99900999  0.65028440  1
  O  O13  1  0.83443633  0.83228155  0.45052768  1
  O  O14  1  0.16706882  0.16606130  0.38901035  1
  O  O15  1  0.16606130  0.66687089  0.38901035  1
  O  O16  1  0.66687089  0.16706882  0.38901035  1
  O  O17  1  0.66666700  0.66666700  0.38905254  1
  O  O18  1  0.33328112  0.83443633  0.45052768  1
  O  O19  1  0.33333300  0.33333300  0.45064729  1
  O  O20  1  0.83228155  0.33328112  0.45052768  1
