# generated using pymatgen
data_ZrCr(TeS)2
_symmetry_space_group_name_H-M   'P 1'
_cell_length_a   3.52079036
_cell_length_b   3.52079100
_cell_length_c   30.00000000
_cell_angle_alpha   90.00000000
_cell_angle_beta   90.00000000
_cell_angle_gamma   60.00000341
_symmetry_Int_Tables_number   1
_chemical_formula_structural   ZrCr(TeS)2
_chemical_formula_sum   'Zr1 Cr1 Te2 S2'
_cell_volume   322.05668140
_cell_formula_units_Z   1
loop_
 _symmetry_equiv_pos_site_id
 _symmetry_equiv_pos_as_xyz
  1  'x, y, z'
loop_
 _atom_site_type_symbol
 _atom_site_label
 _atom_site_symmetry_multiplicity
 _atom_site_fract_x
 _atom_site_fract_y
 _atom_site_fract_z
 _atom_site_occupancy
  Zr  Zr0  1  0.00000000  0.00000000  0.38566006  1
  Cr  Cr1  1  0.00000000  0.00000000  0.61883744  1
  Te  Te2  1  0.33333300  0.33333300  0.56259870  1
  Te  Te3  1  0.33333300  0.33333300  0.67508943  1
  S  S4  1  0.33333300  0.33333300  0.33289791  1
  S  S5  1  0.33333300  0.33333300  0.43853246  1
