# generated using pymatgen
data_Zr3(Cr2Te7)2
_symmetry_space_group_name_H-M   'P 1'
_cell_length_a   6.86508388
_cell_length_b   6.86508400
_cell_length_c   30.00000000
_cell_angle_alpha   90.00000000
_cell_angle_beta   90.00000000
_cell_angle_gamma   59.99999940
_symmetry_Int_Tables_number   1
_chemical_formula_structural   Zr3(Cr2Te7)2
_chemical_formula_sum   'Zr3 Cr4 Te14'
_cell_volume   1224.45713740
_cell_formula_units_Z   1
loop_
 _symmetry_equiv_pos_site_id
 _symmetry_equiv_pos_as_xyz
  1  'x, y, z'
loop_
 _atom_site_type_symbol
 _atom_site_label
 _atom_site_symmetry_multiplicity
 _atom_site_fract_x
 _atom_site_fract_y
 _atom_site_fract_z
 _atom_site_occupancy
  Zr  Zr0  1  0.66666700  0.66666700  0.37006638  1
  Zr  Zr1  1  0.33333300  0.33333300  0.38107719  1
  Zr  Zr2  1  0.00000000  0.00000000  0.38236351  1
  Cr  Cr3  1  0.00000000  0.00000000  0.61645456  1
  Cr  Cr4  1  0.99972187  0.49836975  0.61654349  1
  Cr  Cr5  1  0.50190837  0.99972187  0.61654349  1
  Cr  Cr6  1  0.49836975  0.50190837  0.61654349  1
  Te  Te7  1  0.98744398  0.34730636  0.43911826  1
  Te  Te8  1  0.66798436  0.01231724  0.31636580  1
  Te  Te9  1  0.31969841  0.66798436  0.31636580  1
  Te  Te10  1  0.01231724  0.31969841  0.31636580  1
  Te  Te11  1  0.66671521  0.16764718  0.67376882  1
  Te  Te12  1  0.34730636  0.66524966  0.43911826  1
  Te  Te13  1  0.16563861  0.66671521  0.67376882  1
  Te  Te14  1  0.16764718  0.16563861  0.67376882  1
  Te  Te15  1  0.66666700  0.66666700  0.55908315  1
  Te  Te16  1  0.66625841  0.16940403  0.55931248  1
  Te  Te17  1  0.16433856  0.66625841  0.55931248  1
  Te  Te18  1  0.16940403  0.16433856  0.55931248  1
  Te  Te19  1  0.66666700  0.66666700  0.67385464  1
  Te  Te20  1  0.66524966  0.98744398  0.43911826  1
