# generated using pymatgen
data_TiCrTe4
_symmetry_space_group_name_H-M   'P 1'
_cell_length_a   6.24155600
_cell_length_b   6.24155595
_cell_length_c   30.00000000
_cell_angle_alpha   90.00000000
_cell_angle_beta   90.00000000
_cell_angle_gamma   59.99999975
_symmetry_Int_Tables_number   1
_chemical_formula_structural   TiCrTe4
_chemical_formula_sum   'Ti3 Cr3 Te12'
_cell_volume   1012.13309275
_cell_formula_units_Z   3
loop_
 _symmetry_equiv_pos_site_id
 _symmetry_equiv_pos_as_xyz
  1  'x, y, z'
loop_
 _atom_site_type_symbol
 _atom_site_label
 _atom_site_symmetry_multiplicity
 _atom_site_fract_x
 _atom_site_fract_y
 _atom_site_fract_z
 _atom_site_occupancy
  Ti  Ti0  1  0.66666700  0.66666700  0.38802237  1
  Ti  Ti1  1  0.33333300  0.33333300  0.38802237  1
  Ti  Ti2  1  0.00000000  0.00000000  0.38802237  1
  Cr  Cr3  1  0.00000000  0.00000000  0.60943689  1
  Cr  Cr4  1  0.33333300  0.33333300  0.60943689  1
  Cr  Cr5  1  0.66666700  0.66666700  0.60943689  1
  Te  Te6  1  0.00000000  0.33333300  0.44805734  1
  Te  Te7  1  0.66666700  0.00000000  0.32655338  1
  Te  Te8  1  0.33333300  0.66666700  0.32655338  1
  Te  Te9  1  0.00000000  0.33333300  0.32655338  1
  Te  Te10  1  0.00000000  0.66666700  0.66498100  1
  Te  Te11  1  0.66666700  0.33333300  0.66498100  1
  Te  Te12  1  0.33333300  0.00000000  0.66498100  1
  Te  Te13  1  0.00000000  0.66666700  0.55452503  1
  Te  Te14  1  0.66666700  0.33333300  0.55452503  1
  Te  Te15  1  0.33333300  0.00000000  0.55452503  1
  Te  Te16  1  0.33333300  0.66666700  0.44805734  1
  Te  Te17  1  0.66666700  0.00000000  0.44805734  1
