# generated using pymatgen
data_Hf3Zr4(Se3O4)2
_symmetry_space_group_name_H-M   'P 1'
_cell_length_a   6.44941952
_cell_length_b   6.44942000
_cell_length_c   30.00000000
_cell_angle_alpha   90.00000000
_cell_angle_beta   90.00000000
_cell_angle_gamma   59.99999751
_symmetry_Int_Tables_number   1
_chemical_formula_structural   Hf3Zr4(Se3O4)2
_chemical_formula_sum   'Hf3 Zr4 Se6 O8'
_cell_volume   1080.67016822
_cell_formula_units_Z   1
loop_
 _symmetry_equiv_pos_site_id
 _symmetry_equiv_pos_as_xyz
  1  'x, y, z'
loop_
 _atom_site_type_symbol
 _atom_site_label
 _atom_site_symmetry_multiplicity
 _atom_site_fract_x
 _atom_site_fract_y
 _atom_site_fract_z
 _atom_site_occupancy
  Hf  Hf0  1  0.66666615  0.66666654  0.38631926  1
  Hf  Hf1  1  0.33333344  0.33333385  0.39399143  1
  Hf  Hf2  1  0.00000045  0.99999952  0.39382146  1
  Zr  Zr3  1  0.99999999  0.00000014  0.58700992  1
  Zr  Zr4  1  0.99994210  0.49998702  0.58588276  1
  Zr  Zr5  1  0.50007090  0.99994208  0.58588268  1
  Zr  Zr6  1  0.49998698  0.50007084  0.58588274  1
  Se  Se7  1  0.33944386  0.99383473  0.44655681  1
  Se  Se8  1  0.00572402  0.66668208  0.33597135  1
  Se  Se9  1  0.66668212  0.32759359  0.33597113  1
  Se  Se10  1  0.32759386  0.00572422  0.33597133  1
  Se  Se11  1  0.99383463  0.66672133  0.44655683  1
  Se  Se12  1  0.66672150  0.33944385  0.44655702  1
  O  O13  1  0.33333358  0.33333326  0.61887948  1
  O  O14  1  0.33457170  0.83281993  0.61923674  1
  O  O15  1  0.66666668  0.66666619  0.55296988  1
  O  O16  1  0.66805709  0.16523805  0.55341953  1
  O  O17  1  0.16670445  0.66805718  0.55341960  1
  O  O18  1  0.16523780  0.16670470  0.55341952  1
  O  O19  1  0.83260898  0.33457167  0.61923680  1
  O  O20  1  0.83281972  0.83260922  0.61923674  1
