# generated using pymatgen
data_ZrSnO4
_symmetry_space_group_name_H-M   'P 1'
_cell_length_a   5.61920228
_cell_length_b   5.61920228
_cell_length_c   30.00000000
_cell_angle_alpha   90.00000000
_cell_angle_beta   90.00000000
_cell_angle_gamma   59.99999675
_symmetry_Int_Tables_number   1
_chemical_formula_structural   ZrSnO4
_chemical_formula_sum   'Zr3 Sn3 O12'
_cell_volume   820.35381825
_cell_formula_units_Z   3
loop_
 _symmetry_equiv_pos_site_id
 _symmetry_equiv_pos_as_xyz
  1  'x, y, z'
loop_
 _atom_site_type_symbol
 _atom_site_label
 _atom_site_symmetry_multiplicity
 _atom_site_fract_x
 _atom_site_fract_y
 _atom_site_fract_z
 _atom_site_occupancy
  Zr  Zr0  1  0.66666700  0.66666700  0.42386589  1
  Zr  Zr1  1  0.33333300  0.33333300  0.42386589  1
  Zr  Zr2  1  0.00000000  0.00000000  0.42386589  1
  Sn  Sn3  1  0.00000000  0.00000000  0.57741125  1
  Sn  Sn4  1  0.33333300  0.33333300  0.57741125  1
  Sn  Sn5  1  0.66666700  0.66666700  0.57741125  1
  O  O6  1  0.33333300  0.66666700  0.45641978  1
  O  O7  1  0.00000000  0.66666700  0.39119613  1
  O  O8  1  0.66666700  0.33333300  0.39119613  1
  O  O9  1  0.33333300  0.00000000  0.39119613  1
  O  O10  1  0.00000000  0.33333300  0.61088706  1
  O  O11  1  0.66666700  0.00000000  0.61088706  1
  O  O12  1  0.33333300  0.66666700  0.61088706  1
  O  O13  1  0.00000000  0.66666700  0.54400889  1
  O  O14  1  0.66666700  0.33333300  0.54400889  1
  O  O15  1  0.33333300  0.00000000  0.54400889  1
  O  O16  1  0.66666700  0.00000000  0.45641978  1
  O  O17  1  0.00000000  0.33333300  0.45641978  1
