# generated using pymatgen
data_Sn3W4(Se4S3)2
_symmetry_space_group_name_H-M   'P 1'
_cell_length_a   6.51983324
_cell_length_b   6.51983300
_cell_length_c   30.00000000
_cell_angle_alpha   90.00000000
_cell_angle_beta   90.00000000
_cell_angle_gamma   59.99999617
_symmetry_Int_Tables_number   1
_chemical_formula_structural   Sn3W4(Se4S3)2
_chemical_formula_sum   'Sn3 W4 Se8 S6'
_cell_volume   1104.39601143
_cell_formula_units_Z   1
loop_
 _symmetry_equiv_pos_site_id
 _symmetry_equiv_pos_as_xyz
  1  'x, y, z'
loop_
 _atom_site_type_symbol
 _atom_site_label
 _atom_site_symmetry_multiplicity
 _atom_site_fract_x
 _atom_site_fract_y
 _atom_site_fract_z
 _atom_site_occupancy
  Sn  Sn0  1  0.00000000  0.00000000  0.60484289  1
  Sn  Sn1  1  0.33333300  0.33333300  0.60492887  1
  Sn  Sn2  1  0.66666700  0.66666700  0.60548878  1
  W  W3  1  0.50094168  0.49937077  0.38760209  1
  W  W4  1  0.49937077  0.99968755  0.38760209  1
  W  W5  1  0.00000000  0.00000000  0.38753175  1
  W  W6  1  0.99968755  0.50094168  0.38760209  1
  Se  Se7  1  0.66666023  0.16527467  0.44398469  1
  Se  Se8  1  0.16612375  0.16737735  0.33107541  1
  Se  Se9  1  0.16737735  0.66649991  0.33107541  1
  Se  Se10  1  0.66649991  0.16612375  0.33107541  1
  Se  Se11  1  0.66666700  0.66666700  0.33106124  1
  Se  Se12  1  0.16527467  0.16806610  0.44398469  1
  Se  Se13  1  0.16806610  0.66666023  0.44398469  1
  Se  Se14  1  0.66666700  0.66666700  0.44430375  1
  S  S15  1  0.66705705  0.00113773  0.65347743  1
  S  S16  1  0.00113773  0.33180522  0.65347743  1
  S  S17  1  0.99790767  0.66660532  0.55664228  1
  S  S18  1  0.66660532  0.33548700  0.55664228  1
  S  S19  1  0.33548700  0.99790767  0.55664228  1
  S  S20  1  0.33180522  0.66705705  0.65347743  1
