# generated using pymatgen
data_Cr3Mo4(Se3O4)2
_symmetry_space_group_name_H-M   'P 1'
_cell_length_a   5.59911986
_cell_length_b   5.59911900
_cell_length_c   30.00000000
_cell_angle_alpha   90.00000000
_cell_angle_beta   90.00000000
_cell_angle_gamma   59.99999919
_symmetry_Int_Tables_number   1
_chemical_formula_structural   Cr3Mo4(Se3O4)2
_chemical_formula_sum   'Cr3 Mo4 Se6 O8'
_cell_volume   814.50048146
_cell_formula_units_Z   1
loop_
 _symmetry_equiv_pos_site_id
 _symmetry_equiv_pos_as_xyz
  1  'x, y, z'
loop_
 _atom_site_type_symbol
 _atom_site_label
 _atom_site_symmetry_multiplicity
 _atom_site_fract_x
 _atom_site_fract_y
 _atom_site_fract_z
 _atom_site_occupancy
  Cr  Cr0  1  0.00000000  0.00000000  0.60181118  1
  Cr  Cr1  1  0.33333300  0.33333300  0.60181693  1
  Cr  Cr2  1  0.66666700  0.66666700  0.60211141  1
  Mo  Mo3  1  0.49980439  0.50022048  0.40743974  1
  Mo  Mo4  1  0.50022048  0.99997513  0.40743974  1
  Mo  Mo5  1  0.00000000  0.00000000  0.40743217  1
  Mo  Mo6  1  0.99997513  0.49980439  0.40743974  1
  Se  Se7  1  0.33284865  0.66665169  0.65391607  1
  Se  Se8  1  0.66665169  0.00049965  0.65391607  1
  Se  Se9  1  0.66662219  0.99870892  0.55005213  1
  Se  Se10  1  0.33466888  0.66662219  0.55005213  1
  Se  Se11  1  0.99870892  0.33466888  0.55005213  1
  Se  Se12  1  0.00049965  0.33284865  0.65391607  1
  O  O13  1  0.66661299  0.16745155  0.44890731  1
  O  O14  1  0.16681499  0.16648455  0.36598843  1
  O  O15  1  0.16648455  0.66670146  0.36598843  1
  O  O16  1  0.66670146  0.16681499  0.36598843  1
  O  O17  1  0.66666700  0.66666700  0.36601935  1
  O  O18  1  0.16745155  0.16593646  0.44890731  1
  O  O19  1  0.16593646  0.66661299  0.44890731  1
  O  O20  1  0.66666700  0.66666700  0.44902188  1
