# generated using pymatgen
data_Hf3Sn4(Te3O4)2
_symmetry_space_group_name_H-M   'P 1'
_cell_length_a   6.60965100
_cell_length_b   6.60965153
_cell_length_c   30.00000000
_cell_angle_alpha   90.00000000
_cell_angle_beta   90.00000000
_cell_angle_gamma   59.99999765
_symmetry_Int_Tables_number   1
_chemical_formula_structural   Hf3Sn4(Te3O4)2
_chemical_formula_sum   'Hf3 Sn4 Te6 O8'
_cell_volume   1135.03425420
_cell_formula_units_Z   1
loop_
 _symmetry_equiv_pos_site_id
 _symmetry_equiv_pos_as_xyz
  1  'x, y, z'
loop_
 _atom_site_type_symbol
 _atom_site_label
 _atom_site_symmetry_multiplicity
 _atom_site_fract_x
 _atom_site_fract_y
 _atom_site_fract_z
 _atom_site_occupancy
  Hf  Hf0  1  0.66666700  0.66666700  0.38382564  1
  Hf  Hf1  1  0.33333300  0.33333300  0.38726154  1
  Hf  Hf2  1  0.00000000  0.00000000  0.38753538  1
  Sn  Sn3  1  0.00000000  0.00000000  0.58750266  1
  Sn  Sn4  1  0.99981469  0.49992530  0.58730838  1
  Sn  Sn5  1  0.50026001  0.99981469  0.58730838  1
  Sn  Sn6  1  0.49992530  0.50026001  0.58730838  1
  Te  Te7  1  0.99575129  0.33784023  0.44821303  1
  Te  Te8  1  0.66691815  0.00354283  0.32378776  1
  Te  Te9  1  0.32953902  0.66691815  0.32378776  1
  Te  Te10  1  0.00354283  0.32953902  0.32378776  1
  Te  Te11  1  0.66640848  0.99575129  0.44821303  1
  Te  Te12  1  0.33784023  0.66640848  0.44821303  1
  O  O13  1  0.33333300  0.33333300  0.61971017  1
  O  O14  1  0.33360959  0.83265377  0.61983676  1
  O  O15  1  0.66666700  0.66666700  0.55429632  1
  O  O16  1  0.66697794  0.16774755  0.55450783  1
  O  O17  1  0.16527551  0.66697794  0.55450783  1
  O  O18  1  0.16774755  0.16527551  0.55450783  1
  O  O19  1  0.83373564  0.33360959  0.61983676  1
  O  O20  1  0.83265377  0.83373564  0.61983676  1
