# generated using pymatgen
data_Ti7(Se3O4)2
_symmetry_space_group_name_H-M   'P 1'
_cell_length_a   6.01058362
_cell_length_b   6.01058362
_cell_length_c   30.00000000
_cell_angle_alpha   90.00000000
_cell_angle_beta   90.00000000
_cell_angle_gamma   60.00000415
_symmetry_Int_Tables_number   1
_chemical_formula_structural   Ti7(Se3O4)2
_chemical_formula_sum   'Ti7 Se6 O8'
_cell_volume   938.61003257
_cell_formula_units_Z   1
loop_
 _symmetry_equiv_pos_site_id
 _symmetry_equiv_pos_as_xyz
  1  'x, y, z'
loop_
 _atom_site_type_symbol
 _atom_site_label
 _atom_site_symmetry_multiplicity
 _atom_site_fract_x
 _atom_site_fract_y
 _atom_site_fract_z
 _atom_site_occupancy
  Ti  Ti0  1  0.00000000  0.00000000  0.58003278  1
  Ti  Ti1  1  0.99616760  0.50024980  0.58740517  1
  Ti  Ti2  1  0.50358260  0.99616760  0.58740517  1
  Ti  Ti3  1  0.50024980  0.50358260  0.58740517  1
  Ti  Ti4  1  0.66666700  0.66666700  0.39139565  1
  Ti  Ti5  1  0.33333300  0.33333300  0.39641792  1
  Ti  Ti6  1  0.00000000  0.00000000  0.39608510  1
  Se  Se7  1  0.33724105  0.99595653  0.44840053  1
  Se  Se8  1  0.00381152  0.66645741  0.34051341  1
  Se  Se9  1  0.66645741  0.32973107  0.34051341  1
  Se  Se10  1  0.32973107  0.00381152  0.34051341  1
  Se  Se11  1  0.99595653  0.66680241  0.44840053  1
  Se  Se12  1  0.66680241  0.33724105  0.44840053  1
  O  O13  1  0.33333300  0.33333300  0.61834943  1
  O  O14  1  0.33314076  0.83363012  0.61796408  1
  O  O15  1  0.66666700  0.66666700  0.55348873  1
  O  O16  1  0.66584483  0.16610643  0.55284495  1
  O  O17  1  0.16804974  0.66584483  0.55284495  1
  O  O18  1  0.16610643  0.16804974  0.55284495  1
  O  O19  1  0.83322811  0.33314076  0.61796408  1
  O  O20  1  0.83363012  0.83322811  0.61796408  1
