# generated using pymatgen
data_Sn3(Mo2Se7)2
_symmetry_space_group_name_H-M   'P 1'
_cell_length_a   6.66560006
_cell_length_b   6.66560006
_cell_length_c   30.00000000
_cell_angle_alpha   90.00000000
_cell_angle_beta   90.00000000
_cell_angle_gamma   59.99999941
_symmetry_Int_Tables_number   1
_chemical_formula_structural   Sn3(Mo2Se7)2
_chemical_formula_sum   'Sn3 Mo4 Se14'
_cell_volume   1154.33107747
_cell_formula_units_Z   1
loop_
 _symmetry_equiv_pos_site_id
 _symmetry_equiv_pos_as_xyz
  1  'x, y, z'
loop_
 _atom_site_type_symbol
 _atom_site_label
 _atom_site_symmetry_multiplicity
 _atom_site_fract_x
 _atom_site_fract_y
 _atom_site_fract_z
 _atom_site_occupancy
  Sn  Sn0  1  0.00000000  0.00000000  0.60834436  1
  Sn  Sn1  1  0.33333300  0.33333300  0.60830941  1
  Sn  Sn2  1  0.66666700  0.66666700  0.60925984  1
  Mo  Mo3  1  0.50119289  0.49910764  0.38821700  1
  Mo  Mo4  1  0.49910764  0.99969947  0.38821700  1
  Mo  Mo5  1  0.00000000  0.00000000  0.38813802  1
  Mo  Mo6  1  0.99969947  0.50119289  0.38821700  1
  Se  Se7  1  0.66670348  0.00196913  0.66191014  1
  Se  Se8  1  0.00196913  0.33132739  0.66191014  1
  Se  Se9  1  0.99711970  0.66675709  0.55535737  1
  Se  Se10  1  0.66665698  0.16480096  0.44337168  1
  Se  Se11  1  0.66675709  0.33612321  0.55535737  1
  Se  Se12  1  0.33612321  0.99711970  0.55535737  1
  Se  Se13  1  0.16591173  0.16759927  0.33285186  1
  Se  Se14  1  0.16759927  0.66649000  0.33285186  1
  Se  Se15  1  0.66649000  0.16591173  0.33285186  1
  Se  Se16  1  0.66666700  0.66666700  0.33287775  1
  Se  Se17  1  0.16480096  0.16854305  0.44337168  1
  Se  Se18  1  0.16854305  0.66665698  0.44337168  1
  Se  Se19  1  0.33132739  0.66670348  0.66191014  1
  Se  Se20  1  0.66666700  0.66666700  0.44374444  1
