# generated using pymatgen
data_NiWSe4
_symmetry_space_group_name_H-M   'P 1'
_cell_length_a   5.94129000
_cell_length_b   5.94128994
_cell_length_c   30.00000000
_cell_angle_alpha   90.00000000
_cell_angle_beta   90.00000000
_cell_angle_gamma   59.99999966
_symmetry_Int_Tables_number   1
_chemical_formula_structural   NiWSe4
_chemical_formula_sum   'Ni3 W3 Se12'
_cell_volume   917.09300902
_cell_formula_units_Z   3
loop_
 _symmetry_equiv_pos_site_id
 _symmetry_equiv_pos_as_xyz
  1  'x, y, z'
loop_
 _atom_site_type_symbol
 _atom_site_label
 _atom_site_symmetry_multiplicity
 _atom_site_fract_x
 _atom_site_fract_y
 _atom_site_fract_z
 _atom_site_occupancy
  Ni  Ni0  1  0.00000000  0.00000000  0.59481291  1
  Ni  Ni1  1  0.33333300  0.33333300  0.59481291  1
  Ni  Ni2  1  0.66666700  0.66666700  0.59481291  1
  W  W3  1  0.66666700  0.66666700  0.39058995  1
  W  W4  1  0.33333300  0.33333300  0.39058995  1
  W  W5  1  0.00000000  0.00000000  0.39058995  1
  Se  Se6  1  0.33333300  0.00000000  0.44493837  1
  Se  Se7  1  0.00000000  0.66666700  0.33612255  1
  Se  Se8  1  0.66666700  0.33333300  0.33612255  1
  Se  Se9  1  0.33333300  0.00000000  0.33612255  1
  Se  Se10  1  0.00000000  0.66666700  0.63847940  1
  Se  Se11  1  0.66666700  0.33333300  0.63847940  1
  Se  Se12  1  0.33333300  0.00000000  0.63847940  1
  Se  Se13  1  0.66666700  0.00000000  0.55169482  1
  Se  Se14  1  0.33333300  0.66666700  0.55169482  1
  Se  Se15  1  0.00000000  0.33333300  0.55169482  1
  Se  Se16  1  0.66666700  0.33333300  0.44493837  1
  Se  Se17  1  0.00000000  0.66666700  0.44493837  1
