# generated using pymatgen
data_Ni7(Se3O4)2
_symmetry_space_group_name_H-M   'P 1'
_cell_length_a   5.90266000
_cell_length_b   5.90265956
_cell_length_c   30.00000000
_cell_angle_alpha   90.00000000
_cell_angle_beta   90.00000000
_cell_angle_gamma   59.99999753
_symmetry_Int_Tables_number   1
_chemical_formula_structural   Ni7(Se3O4)2
_chemical_formula_sum   'Ni7 Se6 O8'
_cell_volume   905.20590687
_cell_formula_units_Z   1
loop_
 _symmetry_equiv_pos_site_id
 _symmetry_equiv_pos_as_xyz
  1  'x, y, z'
loop_
 _atom_site_type_symbol
 _atom_site_label
 _atom_site_symmetry_multiplicity
 _atom_site_fract_x
 _atom_site_fract_y
 _atom_site_fract_z
 _atom_site_occupancy
  Ni  Ni0  1  0.00000000  0.00000000  0.57717369  1
  Ni  Ni1  1  0.99962642  0.50025598  0.57736093  1
  Ni  Ni2  1  0.50011760  0.99962642  0.57736093  1
  Ni  Ni3  1  0.50025598  0.50011760  0.57736093  1
  Ni  Ni4  1  0.66666700  0.66666700  0.41586173  1
  Ni  Ni5  1  0.33333300  0.33333300  0.41857168  1
  Ni  Ni6  1  0.00000000  0.00000000  0.41847290  1
  Se  Se7  1  0.33901824  0.99367069  0.46141463  1
  Se  Se8  1  0.66609868  0.00581142  0.37336608  1
  Se  Se9  1  0.32808989  0.66609868  0.37336608  1
  Se  Se10  1  0.00581142  0.32808989  0.37336608  1
  Se  Se11  1  0.99367069  0.66731107  0.46141463  1
  Se  Se12  1  0.66731107  0.33901824  0.46141463  1
  O  O13  1  0.33333300  0.33333300  0.60687516  1
  O  O14  1  0.33240352  0.83275759  0.60707366  1
  O  O15  1  0.66666700  0.66666700  0.54716762  1
  O  O16  1  0.66679759  0.16519355  0.54693178  1
  O  O17  1  0.16800986  0.66679759  0.54693178  1
  O  O18  1  0.16519355  0.16800986  0.54693178  1
  O  O19  1  0.83483789  0.33240352  0.60707366  1
  O  O20  1  0.83275759  0.83483789  0.60707366  1
