# generated using pymatgen
data_HfSeS
_symmetry_space_group_name_H-M   'P 1'
_cell_length_a   6.42827700
_cell_length_b   6.42827659
_cell_length_c   30.00000000
_cell_angle_alpha   90.00000000
_cell_angle_beta   90.00000000
_cell_angle_gamma   60.00000304
_symmetry_Int_Tables_number   1
_chemical_formula_structural   HfSeS
_chemical_formula_sum   'Hf6 Se6 S6'
_cell_volume   1073.59637703
_cell_formula_units_Z   6
loop_
 _symmetry_equiv_pos_site_id
 _symmetry_equiv_pos_as_xyz
  1  'x, y, z'
loop_
 _atom_site_type_symbol
 _atom_site_label
 _atom_site_symmetry_multiplicity
 _atom_site_fract_x
 _atom_site_fract_y
 _atom_site_fract_z
 _atom_site_occupancy
  Hf  Hf0  1  0.00000000  0.00000000  0.59836802  1
  Hf  Hf1  1  0.33333300  0.33333300  0.59836802  1
  Hf  Hf2  1  0.66666700  0.66666700  0.59836802  1
  Hf  Hf3  1  0.66666700  0.66666700  0.39735980  1
  Hf  Hf4  1  0.33333300  0.33333300  0.39735980  1
  Hf  Hf5  1  0.00000000  0.00000000  0.39735980  1
  Se  Se6  1  0.33333300  0.00000000  0.45023828  1
  Se  Se7  1  0.66666700  0.00000000  0.34429322  1
  Se  Se8  1  0.33333300  0.66666700  0.34429322  1
  Se  Se9  1  0.00000000  0.33333300  0.34429322  1
  Se  Se10  1  0.00000000  0.66666700  0.45023828  1
  Se  Se11  1  0.66666700  0.33333300  0.45023828  1
  S  S12  1  0.66666700  0.33333300  0.64529933  1
  S  S13  1  0.33333300  0.00000000  0.64529933  1
  S  S14  1  0.66666700  0.00000000  0.55156035  1
  S  S15  1  0.33333300  0.66666700  0.55156035  1
  S  S16  1  0.00000000  0.33333300  0.55156035  1
  S  S17  1  0.00000000  0.66666700  0.64529933  1
