# generated using pymatgen
data_Ti4Te6Pt3Se8
_symmetry_space_group_name_H-M   'P 1'
_cell_length_a   6.97050130
_cell_length_b   6.97050100
_cell_length_c   30.00000000
_cell_angle_alpha   90.00000000
_cell_angle_beta   90.00000000
_cell_angle_gamma   59.99999667
_symmetry_Int_Tables_number   1
_chemical_formula_structural   Ti4Te6Pt3Se8
_chemical_formula_sum   'Ti4 Te6 Pt3 Se8'
_cell_volume   1262.35027266
_cell_formula_units_Z   1
loop_
 _symmetry_equiv_pos_site_id
 _symmetry_equiv_pos_as_xyz
  1  'x, y, z'
loop_
 _atom_site_type_symbol
 _atom_site_label
 _atom_site_symmetry_multiplicity
 _atom_site_fract_x
 _atom_site_fract_y
 _atom_site_fract_z
 _atom_site_occupancy
  Ti  Ti0  1  0.99889740  0.50293771  0.39547525  1
  Ti  Ti1  1  0.50293771  0.49816489  0.39547525  1
  Ti  Ti2  1  0.49816489  0.99889740  0.39547525  1
  Ti  Ti3  1  0.00000000  0.00000000  0.39756452  1
  Te  Te4  1  0.34223654  0.99135851  0.54716866  1
  Te  Te5  1  0.66640495  0.34223654  0.54716866  1
  Te  Te6  1  0.99135851  0.66640495  0.54716866  1
  Te  Te7  1  0.32534285  0.66691695  0.63895319  1
  Te  Te8  1  0.66691695  0.00774020  0.63895319  1
  Te  Te9  1  0.00774020  0.32534285  0.63895319  1
  Pt  Pt10  1  0.00000000  0.00000000  0.59080509  1
  Pt  Pt11  1  0.66666700  0.66666700  0.59574355  1
  Pt  Pt12  1  0.33333300  0.33333300  0.59109806  1
  Se  Se13  1  0.16506713  0.16723039  0.34330235  1
  Se  Se14  1  0.16723039  0.66770348  0.34330235  1
  Se  Se15  1  0.66770348  0.16506713  0.34330235  1
  Se  Se16  1  0.66666700  0.66666700  0.34272099  1
  Se  Se17  1  0.16057381  0.17363245  0.44992194  1
  Se  Se18  1  0.17363245  0.66579474  0.44992194  1
  Se  Se19  1  0.66579474  0.16057381  0.44992194  1
  Se  Se20  1  0.66666700  0.66666700  0.45027863  1
