# generated using pymatgen
data_SnTe2PtSe2
_symmetry_space_group_name_H-M   'P 1'
_cell_length_a   6.82382319
_cell_length_b   6.82382319
_cell_length_c   30.00000000
_cell_angle_alpha   90.00000000
_cell_angle_beta   90.00000000
_cell_angle_gamma   60.00000785
_symmetry_Int_Tables_number   1
_chemical_formula_structural   SnTe2PtSe2
_chemical_formula_sum   'Sn3 Te6 Pt3 Se6'
_cell_volume   1209.78292817
_cell_formula_units_Z   3
loop_
 _symmetry_equiv_pos_site_id
 _symmetry_equiv_pos_as_xyz
  1  'x, y, z'
loop_
 _atom_site_type_symbol
 _atom_site_label
 _atom_site_symmetry_multiplicity
 _atom_site_fract_x
 _atom_site_fract_y
 _atom_site_fract_z
 _atom_site_occupancy
  Sn  Sn0  1  0.66666700  0.66666700  0.40551487  1
  Sn  Sn1  1  0.33333300  0.33333300  0.40551487  1
  Sn  Sn2  1  0.00000000  0.00000000  0.40551487  1
  Te  Te3  1  0.00000000  0.33333300  0.63453159  1
  Te  Te4  1  0.33333300  0.00000000  0.53977731  1
  Te  Te5  1  0.66666700  0.33333300  0.53977731  1
  Te  Te6  1  0.00000000  0.66666700  0.53977731  1
  Te  Te7  1  0.33333300  0.66666700  0.63453159  1
  Te  Te8  1  0.66666700  0.00000000  0.63453159  1
  Pt  Pt9  1  0.00000000  0.00000000  0.58634941  1
  Pt  Pt10  1  0.66666700  0.66666700  0.58634941  1
  Pt  Pt11  1  0.33333300  0.33333300  0.58634941  1
  Se  Se12  1  0.33333300  0.00000000  0.35374905  1
  Se  Se13  1  0.66666700  0.33333300  0.35374905  1
  Se  Se14  1  0.00000000  0.66666700  0.35374905  1
  Se  Se15  1  0.33333300  0.66666700  0.45932878  1
  Se  Se16  1  0.66666700  0.00000000  0.45932878  1
  Se  Se17  1  0.00000000  0.33333300  0.45932878  1
