# generated using pymatgen
data_Zr3(Mo2Se7)2
_symmetry_space_group_name_H-M   'P 1'
_cell_length_a   6.60563499
_cell_length_b   6.60563500
_cell_length_c   30.00000000
_cell_angle_alpha   90.00000000
_cell_angle_beta   90.00000000
_cell_angle_gamma   60.00000498
_symmetry_Int_Tables_number   1
_chemical_formula_structural   Zr3(Mo2Se7)2
_chemical_formula_sum   'Zr3 Mo4 Se14'
_cell_volume   1133.65537954
_cell_formula_units_Z   1
loop_
 _symmetry_equiv_pos_site_id
 _symmetry_equiv_pos_as_xyz
  1  'x, y, z'
loop_
 _atom_site_type_symbol
 _atom_site_label
 _atom_site_symmetry_multiplicity
 _atom_site_fract_x
 _atom_site_fract_y
 _atom_site_fract_z
 _atom_site_occupancy
  Zr  Zr0  1  0.00000000  0.00000000  0.60744724  1
  Zr  Zr1  1  0.33333300  0.33333300  0.60779138  1
  Zr  Zr2  1  0.66666700  0.66666700  0.60904649  1
  Mo  Mo3  1  0.50106937  0.49912174  0.38823401  1
  Mo  Mo4  1  0.49912174  0.99980889  0.38823401  1
  Mo  Mo5  1  0.00000000  0.00000000  0.38821173  1
  Mo  Mo6  1  0.99980889  0.50106937  0.38823401  1
  Se  Se7  1  0.66692546  0.00133546  0.66067233  1
  Se  Se8  1  0.00133546  0.33173909  0.66067233  1
  Se  Se9  1  0.99825974  0.66637122  0.55573471  1
  Se  Se10  1  0.66662965  0.16501609  0.44378493  1
  Se  Se11  1  0.66637122  0.33536904  0.55573471  1
  Se  Se12  1  0.33536904  0.99825974  0.55573471  1
  Se  Se13  1  0.16588272  0.16751197  0.33253111  1
  Se  Se14  1  0.16751197  0.66660630  0.33253111  1
  Se  Se15  1  0.66660630  0.16588272  0.33253111  1
  Se  Se16  1  0.66666700  0.66666700  0.33253684  1
  Se  Se17  1  0.16501609  0.16835525  0.44378493  1
  Se  Se18  1  0.16835525  0.66662965  0.44378493  1
  Se  Se19  1  0.33173909  0.66692546  0.66067233  1
  Se  Se20  1  0.66666700  0.66666700  0.44403806  1
