# generated using pymatgen
data_Zr3Ge4(S3O4)2
_symmetry_space_group_name_H-M   'P 1'
_cell_length_a   6.08706841
_cell_length_b   6.08706841
_cell_length_c   30.00000000
_cell_angle_alpha   90.00000000
_cell_angle_beta   90.00000000
_cell_angle_gamma   59.99999551
_symmetry_Int_Tables_number   1
_chemical_formula_structural   Zr3Ge4(S3O4)2
_chemical_formula_sum   'Zr3 Ge4 S6 O8'
_cell_volume   962.64959513
_cell_formula_units_Z   1
loop_
 _symmetry_equiv_pos_site_id
 _symmetry_equiv_pos_as_xyz
  1  'x, y, z'
loop_
 _atom_site_type_symbol
 _atom_site_label
 _atom_site_symmetry_multiplicity
 _atom_site_fract_x
 _atom_site_fract_y
 _atom_site_fract_z
 _atom_site_occupancy
  Zr  Zr0  1  0.66666700  0.66666700  0.40044154  1
  Zr  Zr1  1  0.33333300  0.33333300  0.40137323  1
  Zr  Zr2  1  0.00000000  0.00000000  0.40144225  1
  Ge  Ge3  1  0.00000000  0.00000000  0.58535975  1
  Ge  Ge4  1  0.99991623  0.49995578  0.58525466  1
  Ge  Ge5  1  0.50012799  0.99991623  0.58525466  1
  Ge  Ge6  1  0.49995578  0.50012799  0.58525466  1
  S  S7  1  0.33478266  0.66658410  0.45177925  1
  S  S8  1  0.00118835  0.66675342  0.35020912  1
  S  S9  1  0.66675342  0.33205823  0.35020912  1
  S  S10  1  0.33205823  0.00118835  0.35020912  1
  S  S11  1  0.99863324  0.33478266  0.45177925  1
  S  S12  1  0.66658410  0.99863324  0.45177925  1
  O  O13  1  0.33333300  0.33333300  0.61646597  1
  O  O14  1  0.33354119  0.83272376  0.61651763  1
  O  O15  1  0.66666700  0.66666700  0.55392206  1
  O  O16  1  0.66682162  0.16750214  0.55408339  1
  O  O17  1  0.16567724  0.66682162  0.55408339  1
  O  O18  1  0.16750214  0.16567724  0.55408339  1
  O  O19  1  0.83373405  0.33354119  0.61651763  1
  O  O20  1  0.83272376  0.83373405  0.61651763  1
