# generated using pymatgen
data_Zr3Pd4(S3O4)2
_symmetry_space_group_name_H-M   'P 1'
_cell_length_a   6.28082700
_cell_length_b   6.28082698
_cell_length_c   30.00000000
_cell_angle_alpha   90.00000000
_cell_angle_beta   90.00000000
_cell_angle_gamma   60.00000514
_symmetry_Int_Tables_number   1
_chemical_formula_structural   Zr3Pd4(S3O4)2
_chemical_formula_sum   'Zr3 Pd4 S6 O8'
_cell_volume   1024.90962082
_cell_formula_units_Z   1
loop_
 _symmetry_equiv_pos_site_id
 _symmetry_equiv_pos_as_xyz
  1  'x, y, z'
loop_
 _atom_site_type_symbol
 _atom_site_label
 _atom_site_symmetry_multiplicity
 _atom_site_fract_x
 _atom_site_fract_y
 _atom_site_fract_z
 _atom_site_occupancy
  Zr  Zr0  1  0.66666700  0.66666700  0.40701238  1
  Zr  Zr1  1  0.33333300  0.33333300  0.40791500  1
  Zr  Zr2  1  0.00000000  0.00000000  0.40813563  1
  Pd  Pd3  1  0.00000000  0.00000000  0.58036539  1
  Pd  Pd4  1  0.99986917  0.50007555  0.58031876  1
  Pd  Pd5  1  0.50005529  0.99986917  0.58031876  1
  Pd  Pd6  1  0.50007555  0.50005529  0.58031876  1
  S  S7  1  0.33476375  0.99866848  0.45654262  1
  S  S8  1  0.66680184  0.00105201  0.35846285  1
  S  S9  1  0.33214615  0.66680184  0.35846285  1
  S  S10  1  0.00105201  0.33214615  0.35846285  1
  S  S11  1  0.99866848  0.66656777  0.45654262  1
  S  S12  1  0.66656777  0.33476375  0.45654262  1
  O  O13  1  0.33333300  0.33333300  0.61173252  1
  O  O14  1  0.33325045  0.83286710  0.61177078  1
  O  O15  1  0.66666700  0.66666700  0.54882575  1
  O  O16  1  0.66674083  0.16569838  0.54898443  1
  O  O17  1  0.16756178  0.66674083  0.54898443  1
  O  O18  1  0.16569838  0.16756178  0.54898443  1
  O  O19  1  0.83388145  0.33325045  0.61177078  1
  O  O20  1  0.83286710  0.83388145  0.61177078  1
