# generated using pymatgen
data_Hf3Te6(PtO2)4
_symmetry_space_group_name_H-M   'P 1'
_cell_length_a   6.52852400
_cell_length_b   6.52852432
_cell_length_c   30.00000000
_cell_angle_alpha   90.00000000
_cell_angle_beta   90.00000000
_cell_angle_gamma   60.00000161
_symmetry_Int_Tables_number   1
_chemical_formula_structural   Hf3Te6(PtO2)4
_chemical_formula_sum   'Hf3 Te6 Pt4 O8'
_cell_volume   1107.34238792
_cell_formula_units_Z   1
loop_
 _symmetry_equiv_pos_site_id
 _symmetry_equiv_pos_as_xyz
  1  'x, y, z'
loop_
 _atom_site_type_symbol
 _atom_site_label
 _atom_site_symmetry_multiplicity
 _atom_site_fract_x
 _atom_site_fract_y
 _atom_site_fract_z
 _atom_site_occupancy
  Hf  Hf0  1  0.66666700  0.66666700  0.38961220  1
  Hf  Hf1  1  0.33333300  0.33333300  0.39407681  1
  Hf  Hf2  1  0.00000000  0.00000000  0.39358086  1
  Te  Te3  1  0.66763162  0.99472680  0.45480301  1
  Te  Te4  1  0.99472680  0.33764158  0.45480301  1
  Te  Te5  1  0.66613325  0.00455298  0.32943809  1
  Te  Te6  1  0.32931377  0.66613325  0.32943809  1
  Te  Te7  1  0.00455298  0.32931377  0.32943809  1
  Te  Te8  1  0.33764158  0.66763162  0.45480301  1
  Pt  Pt9  1  0.00000000  0.00000000  0.58083989  1
  Pt  Pt10  1  0.50039138  0.49979210  0.58093888  1
  Pt  Pt11  1  0.49979210  0.99981652  0.58093888  1
  Pt  Pt12  1  0.99981652  0.50039138  0.58093888  1
  O  O13  1  0.33282370  0.83416763  0.61024872  1
  O  O14  1  0.83300767  0.33282370  0.61024872  1
  O  O15  1  0.66666700  0.66666700  0.55160772  1
  O  O16  1  0.66661754  0.16762107  0.55154417  1
  O  O17  1  0.16576238  0.66661754  0.55154417  1
  O  O18  1  0.16762107  0.16576238  0.55154417  1
  O  O19  1  0.33333300  0.33333300  0.61016090  1
  O  O20  1  0.83416763  0.83300767  0.61024872  1
