# generated using pymatgen
data_Zr4Mo7(S4O7)2
_symmetry_space_group_name_H-M   'P 1'
_cell_length_a   7.40926540
_cell_length_b   7.40926552
_cell_length_c   30.00000000
_cell_angle_alpha   90.00000000
_cell_angle_beta   90.00000000
_cell_angle_gamma   59.99999858
_symmetry_Int_Tables_number   1
_chemical_formula_structural   Zr4Mo7(S4O7)2
_chemical_formula_sum   'Zr4 Mo7 S8 O14'
_cell_volume   1426.27145468
_cell_formula_units_Z   1
loop_
 _symmetry_equiv_pos_site_id
 _symmetry_equiv_pos_as_xyz
  1  'x, y, z'
loop_
 _atom_site_type_symbol
 _atom_site_label
 _atom_site_symmetry_multiplicity
 _atom_site_fract_x
 _atom_site_fract_y
 _atom_site_fract_z
 _atom_site_occupancy
  Zr  Zr0  1  0.00000000  0.00000000  0.59470538  1
  Zr  Zr1  1  0.99988529  0.50014512  0.59487449  1
  Zr  Zr2  1  0.49996958  0.99988529  0.59487449  1
  Zr  Zr3  1  0.50014512  0.49996958  0.59487449  1
  Mo  Mo4  1  0.85701234  0.71435479  0.40752884  1
  Mo  Mo5  1  0.71435479  0.42863288  0.40752884  1
  Mo  Mo6  1  0.57143730  0.14296694  0.40756161  1
  Mo  Mo7  1  0.28559576  0.57143730  0.40756161  1
  Mo  Mo8  1  0.14296694  0.28559576  0.40756161  1
  Mo  Mo9  1  0.00000000  0.00000000  0.40723870  1
  Mo  Mo10  1  0.42863288  0.85701234  0.40752884  1
  S  S11  1  0.83350791  0.33315780  0.64282362  1
  S  S12  1  0.33333300  0.33333300  0.64286233  1
  S  S13  1  0.33315780  0.83333329  0.64282362  1
  S  S14  1  0.66666700  0.66666700  0.54702892  1
  S  S15  1  0.66614487  0.16645730  0.54722533  1
  S  S16  1  0.16739883  0.66614487  0.54722533  1
  S  S17  1  0.16645730  0.16739883  0.54722533  1
  S  S18  1  0.83333329  0.83350791  0.64282362  1
  O  O19  1  0.61896733  0.90505299  0.44900142  1
  O  O20  1  0.76277667  0.19029869  0.44874697  1
  O  O21  1  0.47597967  0.61896733  0.44900142  1
  O  O22  1  0.33333300  0.33333300  0.44909122  1
  O  O23  1  0.19029869  0.04692464  0.44874697  1
  O  O24  1  0.04760647  0.76144908  0.36597197  1
  O  O25  1  0.47617837  0.61898889  0.36612419  1
  O  O26  1  0.61898889  0.90483274  0.36612419  1
  O  O27  1  0.76144908  0.19094445  0.36597197  1
  O  O28  1  0.33333300  0.33333300  0.36616311  1
  O  O29  1  0.19094445  0.04760647  0.36597197  1
  O  O30  1  0.90505299  0.47597967  0.44900142  1
  O  O31  1  0.90483274  0.47617837  0.36612419  1
  O  O32  1  0.04692464  0.76277667  0.44874697  1
