# generated using pymatgen
data_Zr3Pt4(S3O4)2
_symmetry_space_group_name_H-M   'P 1'
_cell_length_a   6.32979142
_cell_length_b   6.32979142
_cell_length_c   30.00000000
_cell_angle_alpha   90.00000000
_cell_angle_beta   90.00000000
_cell_angle_gamma   60.00000609
_symmetry_Int_Tables_number   1
_chemical_formula_structural   Zr3Pt4(S3O4)2
_chemical_formula_sum   'Zr3 Pt4 S6 O8'
_cell_volume   1040.95201782
_cell_formula_units_Z   1
loop_
 _symmetry_equiv_pos_site_id
 _symmetry_equiv_pos_as_xyz
  1  'x, y, z'
loop_
 _atom_site_type_symbol
 _atom_site_label
 _atom_site_symmetry_multiplicity
 _atom_site_fract_x
 _atom_site_fract_y
 _atom_site_fract_z
 _atom_site_occupancy
  Zr  Zr0  1  0.66666700  0.66666700  0.40554075  1
  Zr  Zr1  1  0.33333300  0.33333300  0.40678240  1
  Zr  Zr2  1  0.00000000  0.00000000  0.40686413  1
  Pt  Pt3  1  0.00000000  0.00000000  0.58037476  1
  Pt  Pt4  1  0.99990468  0.49994549  0.58031813  1
  Pt  Pt5  1  0.50014983  0.99990468  0.58031813  1
  Pt  Pt6  1  0.49994549  0.50014983  0.58031813  1
  S  S7  1  0.33528007  0.66665452  0.45484927  1
  S  S8  1  0.00159830  0.66671800  0.35760967  1
  S  S9  1  0.66671800  0.33168370  0.35760967  1
  S  S10  1  0.33168370  0.00159830  0.35760967  1
  S  S11  1  0.99806541  0.33528007  0.45484927  1
  S  S12  1  0.66665452  0.99806541  0.45484927  1
  O  O13  1  0.33333300  0.33333300  0.61156906  1
  O  O14  1  0.33336363  0.83352578  0.61154602  1
  O  O15  1  0.66666700  0.66666700  0.54910272  1
  O  O16  1  0.66669386  0.16744559  0.54933797  1
  O  O17  1  0.16586154  0.66669386  0.54933797  1
  O  O18  1  0.16744559  0.16586154  0.54933797  1
  O  O19  1  0.83310959  0.33336363  0.61154602  1
  O  O20  1  0.83352578  0.83310959  0.61154602  1
