# generated using pymatgen
data_Ni3Ge4(Se3O4)2
_symmetry_space_group_name_H-M   'P 1'
_cell_length_a   5.96698100
_cell_length_b   5.96698064
_cell_length_c   30.00000000
_cell_angle_alpha   90.00000000
_cell_angle_beta   90.00000000
_cell_angle_gamma   60.00000353
_symmetry_Int_Tables_number   1
_chemical_formula_structural   Ni3Ge4(Se3O4)2
_chemical_formula_sum   'Ni3 Ge4 Se6 O8'
_cell_volume   925.04143306
_cell_formula_units_Z   1
loop_
 _symmetry_equiv_pos_site_id
 _symmetry_equiv_pos_as_xyz
  1  'x, y, z'
loop_
 _atom_site_type_symbol
 _atom_site_label
 _atom_site_symmetry_multiplicity
 _atom_site_fract_x
 _atom_site_fract_y
 _atom_site_fract_z
 _atom_site_occupancy
  Ni  Ni0  1  0.66666700  0.66666700  0.40583916  1
  Ni  Ni1  1  0.33333300  0.33333300  0.40692349  1
  Ni  Ni2  1  0.00000000  0.00000000  0.40699504  1
  Ge  Ge3  1  0.00000000  0.00000000  0.58642105  1
  Ge  Ge4  1  0.99990812  0.50014523  0.58632274  1
  Ge  Ge5  1  0.49994664  0.99990812  0.58632274  1
  Ge  Ge6  1  0.50014523  0.49994664  0.58632274  1
  Se  Se7  1  0.33688302  0.99667723  0.44950369  1
  Se  Se8  1  0.66683094  0.00238206  0.36340824  1
  Se  Se9  1  0.33078700  0.66683094  0.36340824  1
  Se  Se10  1  0.00238206  0.33078700  0.36340824  1
  Se  Se11  1  0.99667723  0.66643976  0.44950369  1
  Se  Se12  1  0.66643976  0.33688302  0.44950369  1
  O  O13  1  0.33333300  0.33333300  0.61816466  1
  O  O14  1  0.33349865  0.83358805  0.61821693  1
  O  O15  1  0.66666700  0.66666700  0.55401296  1
  O  O16  1  0.66680521  0.16585555  0.55415496  1
  O  O17  1  0.16734025  0.66680521  0.55415496  1
  O  O18  1  0.16585555  0.16734025  0.55415496  1
  O  O19  1  0.83291230  0.33349865  0.61821693  1
  O  O20  1  0.83358805  0.83291230  0.61821693  1
