# generated using pymatgen
data_Ti3Te6(PtO2)4
_symmetry_space_group_name_H-M   'P 1'
_cell_length_a   6.37909100
_cell_length_b   6.37909087
_cell_length_c   30.00000000
_cell_angle_alpha   90.00000000
_cell_angle_beta   90.00000000
_cell_angle_gamma   60.00000452
_symmetry_Int_Tables_number   1
_chemical_formula_structural   Ti3Te6(PtO2)4
_chemical_formula_sum   'Ti3 Te6 Pt4 O8'
_cell_volume   1057.23003511
_cell_formula_units_Z   1
loop_
 _symmetry_equiv_pos_site_id
 _symmetry_equiv_pos_as_xyz
  1  'x, y, z'
loop_
 _atom_site_type_symbol
 _atom_site_label
 _atom_site_symmetry_multiplicity
 _atom_site_fract_x
 _atom_site_fract_y
 _atom_site_fract_z
 _atom_site_occupancy
  Ti  Ti0  1  0.66666700  0.66666700  0.39115714  1
  Ti  Ti1  1  0.33333300  0.33333300  0.39437144  1
  Ti  Ti2  1  0.00000000  0.00000000  0.39457196  1
  Te  Te3  1  0.66686290  0.99580161  0.45280713  1
  Te  Te4  1  0.99580161  0.33733549  0.45280713  1
  Te  Te5  1  0.66680377  0.00307776  0.33320866  1
  Te  Te6  1  0.33011847  0.66680377  0.33320866  1
  Te  Te7  1  0.00307776  0.33011847  0.33320866  1
  Te  Te8  1  0.33733549  0.66686290  0.45280713  1
  Pt  Pt9  1  0.00000000  0.00000000  0.58166355  1
  Pt  Pt10  1  0.50017538  0.49998690  0.58171642  1
  Pt  Pt11  1  0.49998690  0.99983771  0.58171642  1
  Pt  Pt12  1  0.99983771  0.50017538  0.58171642  1
  O  O13  1  0.33293941  0.83417748  0.61251942  1
  O  O14  1  0.83288211  0.33293941  0.61251942  1
  O  O15  1  0.66666700  0.66666700  0.55086570  1
  O  O16  1  0.66662118  0.16754188  0.55087619  1
  O  O17  1  0.16583794  0.66662118  0.55087619  1
  O  O18  1  0.16754188  0.16583794  0.55087619  1
  O  O19  1  0.33333300  0.33333300  0.61244174  1
  O  O20  1  0.83417748  0.83288211  0.61251942  1
