# generated using pymatgen
data_Zr4Ge7(Se4O7)2
_symmetry_space_group_name_H-M   'P 1'
_cell_length_a   7.53819654
_cell_length_b   7.53819634
_cell_length_c   30.00000000
_cell_angle_alpha   90.00000000
_cell_angle_beta   90.00000000
_cell_angle_gamma   60.00000001
_symmetry_Int_Tables_number   1
_chemical_formula_structural   Zr4Ge7(Se4O7)2
_chemical_formula_sum   'Zr4 Ge7 Se8 O14'
_cell_volume   1476.34136384
_cell_formula_units_Z   1
loop_
 _symmetry_equiv_pos_site_id
 _symmetry_equiv_pos_as_xyz
  1  'x, y, z'
loop_
 _atom_site_type_symbol
 _atom_site_label
 _atom_site_symmetry_multiplicity
 _atom_site_fract_x
 _atom_site_fract_y
 _atom_site_fract_z
 _atom_site_occupancy
  Zr  Zr0  1  0.00000000  0.00000000  0.39137496  1
  Zr  Zr1  1  0.49969407  0.99997111  0.39149374  1
  Zr  Zr2  1  0.50033483  0.49969407  0.39149374  1
  Zr  Zr3  1  0.99997111  0.50033483  0.39149374  1
  Ge  Ge4  1  0.85706071  0.71434679  0.58755599  1
  Ge  Ge5  1  0.00000000  0.00000000  0.58816931  1
  Ge  Ge6  1  0.42859250  0.85706071  0.58755599  1
  Ge  Ge7  1  0.57140298  0.14292974  0.58745538  1
  Ge  Ge8  1  0.28566728  0.57140298  0.58745538  1
  Ge  Ge9  1  0.14292974  0.28566728  0.58745538  1
  Ge  Ge10  1  0.71434679  0.42859250  0.58755599  1
  Se  Se11  1  0.16786201  0.66619240  0.44694762  1
  Se  Se12  1  0.66666700  0.66666700  0.33574257  1
  Se  Se13  1  0.66675307  0.16637324  0.33567295  1
  Se  Se14  1  0.16687469  0.66675307  0.33567295  1
  Se  Se15  1  0.16637324  0.16687469  0.33567295  1
  Se  Se16  1  0.16594659  0.16786201  0.44694762  1
  Se  Se17  1  0.66666700  0.66666700  0.44713487  1
  Se  Se18  1  0.66619240  0.16594659  0.44694762  1
  O  O19  1  0.66666700  0.66666700  0.62112047  1
  O  O20  1  0.95243980  0.23876362  0.62136288  1
  O  O21  1  0.09539998  0.52357865  0.62107749  1
  O  O22  1  0.38102137  0.09539998  0.62107749  1
  O  O23  1  0.23876362  0.80879658  0.62136288  1
  O  O24  1  0.04695453  0.76285518  0.55422348  1
  O  O25  1  0.90487818  0.47606580  0.55387867  1
  O  O26  1  0.61905602  0.90487818  0.55387867  1
  O  O27  1  0.76285518  0.19019028  0.55422348  1
  O  O28  1  0.47606580  0.61905602  0.55387867  1
  O  O29  1  0.33333300  0.33333300  0.55374225  1
  O  O30  1  0.19019028  0.04695453  0.55422348  1
  O  O31  1  0.80879658  0.95243980  0.62136288  1
  O  O32  1  0.52357865  0.38102137  0.62107749  1
