# generated using pymatgen
data_Mo4Pt3(Se3S4)2
_symmetry_space_group_name_H-M   'P 1'
_cell_length_a   6.42803800
_cell_length_b   6.42803782
_cell_length_c   30.00000000
_cell_angle_alpha   90.00000000
_cell_angle_beta   90.00000000
_cell_angle_gamma   59.99999909
_symmetry_Int_Tables_number   1
_chemical_formula_structural   Mo4Pt3(Se3S4)2
_chemical_formula_sum   'Mo4 Pt3 Se6 S8'
_cell_volume   1073.51654316
_cell_formula_units_Z   1
loop_
 _symmetry_equiv_pos_site_id
 _symmetry_equiv_pos_as_xyz
  1  'x, y, z'
loop_
 _atom_site_type_symbol
 _atom_site_label
 _atom_site_symmetry_multiplicity
 _atom_site_fract_x
 _atom_site_fract_y
 _atom_site_fract_z
 _atom_site_occupancy
  Mo  Mo0  1  0.99984409  0.49918233  0.39364453  1
  Mo  Mo1  1  0.49918233  0.50097358  0.39364453  1
  Mo  Mo2  1  0.50097358  0.99984409  0.39364453  1
  Mo  Mo3  1  0.00000000  0.00000000  0.39360810  1
  Pt  Pt4  1  0.00000000  0.00000000  0.59599668  1
  Pt  Pt5  1  0.66666700  0.66666700  0.59742815  1
  Pt  Pt6  1  0.33333300  0.33333300  0.59614636  1
  Se  Se7  1  0.66637301  0.99624050  0.55250869  1
  Se  Se8  1  0.33035956  0.00274985  0.64088793  1
  Se  Se9  1  0.66689059  0.33035956  0.64088793  1
  Se  Se10  1  0.00274985  0.66689059  0.64088793  1
  Se  Se11  1  0.99624050  0.33738649  0.55250869  1
  Se  Se12  1  0.33738649  0.66637301  0.55250869  1
  S  S13  1  0.66657912  0.16866822  0.44518431  1
  S  S14  1  0.16748514  0.16591491  0.34192919  1
  S  S15  1  0.16591491  0.66660095  0.34192919  1
  S  S16  1  0.66660095  0.16748514  0.34192919  1
  S  S17  1  0.66666700  0.66666700  0.34197255  1
  S  S18  1  0.16866822  0.16475367  0.44518431  1
  S  S19  1  0.16475367  0.66657912  0.44518431  1
  S  S20  1  0.66666700  0.66666700  0.44552221  1
