# generated using pymatgen
data_Ti7W12(Se7O12)2
_symmetry_space_group_name_H-M   'P 1'
_cell_length_a   9.52580300
_cell_length_b   9.52580291
_cell_length_c   30.00000000
_cell_angle_alpha   90.00000000
_cell_angle_beta   90.00000000
_cell_angle_gamma   59.99999622
_symmetry_Int_Tables_number   1
_chemical_formula_structural   Ti7W12(Se7O12)2
_chemical_formula_sum   'Ti7 W12 Se14 O24'
_cell_volume   2357.51821780
_cell_formula_units_Z   1
loop_
 _symmetry_equiv_pos_site_id
 _symmetry_equiv_pos_as_xyz
  1  'x, y, z'
loop_
 _atom_site_type_symbol
 _atom_site_label
 _atom_site_symmetry_multiplicity
 _atom_site_fract_x
 _atom_site_fract_y
 _atom_site_fract_z
 _atom_site_occupancy
  Ti  Ti0  1  0.00000000  0.00000000  0.59628775  1
  Ti  Ti1  1  0.14286779  0.57168825  0.60629612  1
  Ti  Ti2  1  0.28544395  0.14286779  0.60629612  1
  Ti  Ti3  1  0.42881804  0.71431543  0.59942974  1
  Ti  Ti4  1  0.57168825  0.28544395  0.60629612  1
  Ti  Ti5  1  0.71431543  0.85686653  0.59942974  1
  Ti  Ti6  1  0.85686653  0.42881804  0.59942974  1
  W  W7  1  0.50013716  0.00003666  0.40631235  1
  W  W8  1  0.00003666  0.49982617  0.40631235  1
  W  W9  1  0.33333300  0.33333300  0.40590014  1
  W  W10  1  0.66664990  0.16680103  0.40634449  1
  W  W11  1  0.66666700  0.66666700  0.40664444  1
  W  W12  1  0.83331114  0.33332820  0.40659203  1
  W  W13  1  0.33332820  0.83335966  0.40659203  1
  W  W14  1  0.16680103  0.16655007  0.40634449  1
  W  W15  1  0.83335966  0.83331114  0.40659203  1
  W  W16  1  0.16655007  0.66664990  0.40634449  1
  W  W17  1  0.00000000  0.00000000  0.40672857  1
  W  W18  1  0.49982617  0.50013716  0.40631235  1
  Se  Se19  1  0.94936375  0.81466004  0.65372977  1
  Se  Se20  1  0.81466004  0.23597621  0.65372977  1
  Se  Se21  1  0.24007101  0.95531418  0.54828585  1
  Se  Se22  1  0.52244142  0.09652063  0.55126100  1
  Se  Se23  1  0.66666700  0.66666700  0.54738730  1
  Se  Se24  1  0.80461481  0.24007101  0.54828585  1
  Se  Se25  1  0.95531418  0.80461481  0.54828585  1
  Se  Se26  1  0.38103795  0.52244142  0.55126100  1
  Se  Se27  1  0.23597621  0.94936375  0.65372977  1
  Se  Se28  1  0.38201040  0.52474423  0.65673917  1
  Se  Se29  1  0.52474423  0.09324537  0.65673917  1
  Se  Se30  1  0.66666700  0.66666700  0.65299218  1
  Se  Se31  1  0.09652063  0.38103795  0.55126100  1
  Se  Se32  1  0.09324537  0.38201040  0.65673917  1
  O  O33  1  0.16744239  0.33310015  0.44828133  1
  O  O34  1  0.49945746  0.16744239  0.44828133  1
  O  O35  1  0.00040361  0.66588387  0.44860469  1
  O  O36  1  0.33310015  0.49945746  0.44828133  1
  O  O37  1  0.16681029  0.83280674  0.44883772  1
  O  O38  1  0.49974922  0.66647219  0.44879661  1
  O  O39  1  0.83377859  0.49974922  0.44879661  1
  O  O40  1  0.00038297  0.16681029  0.44883772  1
  O  O41  1  0.33371252  0.00040361  0.44860469  1
  O  O42  1  0.66588387  0.33371252  0.44860469  1
  O  O43  1  0.83377402  0.99979317  0.36436419  1
  O  O44  1  0.33319396  0.50059526  0.36389800  1
  O  O45  1  0.33343376  0.99958784  0.36417770  1
  O  O46  1  0.83295438  0.50003200  0.36430978  1
  O  O47  1  0.50003200  0.66701362  0.36430978  1
  O  O48  1  0.16643281  0.83377402  0.36436419  1
  O  O49  1  0.66697840  0.33343376  0.36417770  1
  O  O50  1  0.99958784  0.66697840  0.36417770  1
  O  O51  1  0.50059526  0.16621078  0.36389800  1
  O  O52  1  0.16621078  0.33319396  0.36389800  1
  O  O53  1  0.99979317  0.16643281  0.36436419  1
  O  O54  1  0.66647219  0.83377859  0.44879661  1
  O  O55  1  0.66701362  0.83295438  0.36430978  1
  O  O56  1  0.83280674  0.00038297  0.44883772  1
