# generated using pymatgen
data_Hf3(Mo2Se7)2
_symmetry_space_group_name_H-M   'P 1'
_cell_length_a   6.50458761
_cell_length_b   6.50458800
_cell_length_c   30.00000000
_cell_angle_alpha   90.00000000
_cell_angle_beta   90.00000000
_cell_angle_gamma   59.99999802
_symmetry_Int_Tables_number   1
_chemical_formula_structural   Hf3(Mo2Se7)2
_chemical_formula_sum   'Hf3 Mo4 Se14'
_cell_volume   1099.23725511
_cell_formula_units_Z   1
loop_
 _symmetry_equiv_pos_site_id
 _symmetry_equiv_pos_as_xyz
  1  'x, y, z'
loop_
 _atom_site_type_symbol
 _atom_site_label
 _atom_site_symmetry_multiplicity
 _atom_site_fract_x
 _atom_site_fract_y
 _atom_site_fract_z
 _atom_site_occupancy
  Hf  Hf0  1  0.00000000  0.00000000  0.60830442  1
  Hf  Hf1  1  0.33333300  0.33333300  0.60942438  1
  Hf  Hf2  1  0.66666700  0.66666700  0.61748560  1
  Mo  Mo3  1  0.50114197  0.49909010  0.38800202  1
  Mo  Mo4  1  0.49909010  0.99976793  0.38800202  1
  Mo  Mo5  1  0.00000000  0.00000000  0.38800675  1
  Mo  Mo6  1  0.99976793  0.50114197  0.38800202  1
  Se  Se7  1  0.66714560  0.32695184  0.66681683  1
  Se  Se8  1  0.00590256  0.66714560  0.66681683  1
  Se  Se9  1  0.99401314  0.66583652  0.55678038  1
  Se  Se10  1  0.66646233  0.16502105  0.44422447  1
  Se  Se11  1  0.66583652  0.34015034  0.55678038  1
  Se  Se12  1  0.34015034  0.99401314  0.55678038  1
  Se  Se13  1  0.16596838  0.16738563  0.33169199  1
  Se  Se14  1  0.16738563  0.66664699  0.33169199  1
  Se  Se15  1  0.66664699  0.16596838  0.33169199  1
  Se  Se16  1  0.66666700  0.66666700  0.33166696  1
  Se  Se17  1  0.16502105  0.16851762  0.44422447  1
  Se  Se18  1  0.16851762  0.66646233  0.44422447  1
  Se  Se19  1  0.32695184  0.00590256  0.66681683  1
  Se  Se20  1  0.66666700  0.66666700  0.44449584  1
