# generated using pymatgen
data_ZrTiS4
_symmetry_space_group_name_H-M   'P 1'
_cell_length_a   6.08239784
_cell_length_b   6.08239784
_cell_length_c   30.00000000
_cell_angle_alpha   90.00000000
_cell_angle_beta   90.00000000
_cell_angle_gamma   60.00000173
_symmetry_Int_Tables_number   1
_chemical_formula_structural   ZrTiS4
_chemical_formula_sum   'Zr3 Ti3 S12'
_cell_volume   961.17295114
_cell_formula_units_Z   3
loop_
 _symmetry_equiv_pos_site_id
 _symmetry_equiv_pos_as_xyz
  1  'x, y, z'
loop_
 _atom_site_type_symbol
 _atom_site_label
 _atom_site_symmetry_multiplicity
 _atom_site_fract_x
 _atom_site_fract_y
 _atom_site_fract_z
 _atom_site_occupancy
  Zr  Zr0  1  0.00000000  0.00000000  0.60651411  1
  Zr  Zr1  1  0.33333300  0.33333300  0.60651411  1
  Zr  Zr2  1  0.66666700  0.66666700  0.60651411  1
  Ti  Ti3  1  0.66666700  0.66666700  0.39144118  1
  Ti  Ti4  1  0.33333300  0.33333300  0.39144118  1
  Ti  Ti5  1  0.00000000  0.00000000  0.39144118  1
  S  S6  1  0.33333300  0.00000000  0.44005246  1
  S  S7  1  0.00000000  0.66666700  0.34245174  1
  S  S8  1  0.66666700  0.33333300  0.34245174  1
  S  S9  1  0.33333300  0.00000000  0.34245174  1
  S  S10  1  0.00000000  0.33333300  0.65748402  1
  S  S11  1  0.66666700  0.00000000  0.65748402  1
  S  S12  1  0.33333300  0.66666700  0.65748402  1
  S  S13  1  0.00000000  0.66666700  0.55575648  1
  S  S14  1  0.66666700  0.33333300  0.55575648  1
  S  S15  1  0.33333300  0.00000000  0.55575648  1
  S  S16  1  0.66666700  0.33333300  0.44005246  1
  S  S17  1  0.00000000  0.66666700  0.44005246  1
