# generated using pymatgen
data_Pd3(W2Se7)2
_symmetry_space_group_name_H-M   'P 1'
_cell_length_a   6.55018869
_cell_length_b   6.55018900
_cell_length_c   30.00000000
_cell_angle_alpha   90.00000000
_cell_angle_beta   90.00000000
_cell_angle_gamma   60.00000347
_symmetry_Int_Tables_number   1
_chemical_formula_structural   Pd3(W2Se7)2
_chemical_formula_sum   'Pd3 W4 Se14'
_cell_volume   1114.70395881
_cell_formula_units_Z   1
loop_
 _symmetry_equiv_pos_site_id
 _symmetry_equiv_pos_as_xyz
  1  'x, y, z'
loop_
 _atom_site_type_symbol
 _atom_site_label
 _atom_site_symmetry_multiplicity
 _atom_site_fract_x
 _atom_site_fract_y
 _atom_site_fract_z
 _atom_site_occupancy
  Pd  Pd0  1  0.00000000  0.00000000  0.59546082  1
  Pd  Pd1  1  0.33333300  0.33333300  0.59576471  1
  Pd  Pd2  1  0.66666700  0.66666700  0.59736709  1
  W  W3  1  0.50110610  0.49912835  0.39009843  1
  W  W4  1  0.49912835  0.99976555  0.39009843  1
  W  W5  1  0.00000000  0.00000000  0.39008211  1
  W  W6  1  0.99976555  0.50110610  0.39009843  1
  Se  Se7  1  0.66715882  0.00334141  0.63912610  1
  Se  Se8  1  0.00334141  0.32949977  0.63912610  1
  Se  Se9  1  0.99553546  0.66604195  0.55370570  1
  Se  Se10  1  0.66657626  0.16483031  0.44627266  1
  Se  Se11  1  0.66604195  0.33842259  0.55370570  1
  Se  Se12  1  0.33842259  0.99553546  0.55370570  1
  Se  Se13  1  0.16588179  0.16751274  0.33375394  1
  Se  Se14  1  0.16751274  0.66660647  0.33375394  1
  Se  Se15  1  0.66660647  0.16588179  0.33375394  1
  Se  Se16  1  0.66666700  0.66666700  0.33374222  1
  Se  Se17  1  0.16483031  0.16859443  0.44627266  1
  Se  Se18  1  0.16859443  0.66657626  0.44627266  1
  Se  Se19  1  0.32949977  0.66715882  0.63912610  1
  Se  Se20  1  0.66666700  0.66666700  0.44656758  1
