# generated using pymatgen
data_ZrSeS
_symmetry_space_group_name_H-M   'P 1'
_cell_length_a   3.68281358
_cell_length_b   3.68281400
_cell_length_c   30.00000000
_cell_angle_alpha   90.00000000
_cell_angle_beta   90.00000000
_cell_angle_gamma   59.99999626
_symmetry_Int_Tables_number   1
_chemical_formula_structural   ZrSeS
_chemical_formula_sum   'Zr2 Se2 S2'
_cell_volume   352.38011399
_cell_formula_units_Z   2
loop_
 _symmetry_equiv_pos_site_id
 _symmetry_equiv_pos_as_xyz
  1  'x, y, z'
loop_
 _atom_site_type_symbol
 _atom_site_label
 _atom_site_symmetry_multiplicity
 _atom_site_fract_x
 _atom_site_fract_y
 _atom_site_fract_z
 _atom_site_occupancy
  Zr  Zr0  1  0.00000000  0.00000000  0.61222317  1
  Zr  Zr1  1  0.00000000  0.00000000  0.38801178  1
  Se  Se2  1  0.33333300  0.33333300  0.55798135  1
  Se  Se3  1  0.66666700  0.66666700  0.66690233  1
  S  S4  1  0.33333300  0.33333300  0.33661979  1
  S  S5  1  0.33333300  0.33333300  0.43943958  1
