# generated using pymatgen
data_Te6Mo7Pd3O14
_symmetry_space_group_name_H-M   'P 1'
_cell_length_a   7.20850062
_cell_length_b   7.20850016
_cell_length_c   30.00000000
_cell_angle_alpha   90.00000000
_cell_angle_beta   90.00000000
_cell_angle_gamma   60.00000441
_symmetry_Int_Tables_number   1
_chemical_formula_structural   Te6Mo7Pd3O14
_chemical_formula_sum   'Te6 Mo7 Pd3 O14'
_cell_volume   1350.02483481
_cell_formula_units_Z   1
loop_
 _symmetry_equiv_pos_site_id
 _symmetry_equiv_pos_as_xyz
  1  'x, y, z'
loop_
 _atom_site_type_symbol
 _atom_site_label
 _atom_site_symmetry_multiplicity
 _atom_site_fract_x
 _atom_site_fract_y
 _atom_site_fract_z
 _atom_site_occupancy
  Te  Te0  1  0.33218009  0.99945034  0.54775972  1
  Te  Te1  1  0.66836958  0.33218009  0.54775972  1
  Te  Te2  1  0.99945034  0.66836958  0.54775972  1
  Te  Te3  1  0.33401450  0.66578963  0.63402165  1
  Te  Te4  1  0.66578963  0.00019587  0.63402165  1
  Te  Te5  1  0.00019587  0.33401450  0.63402165  1
  Mo  Mo6  1  0.42857761  0.85708610  0.40660221  1
  Mo  Mo7  1  0.85708610  0.71433629  0.40660221  1
  Mo  Mo8  1  0.71433629  0.42857761  0.40660221  1
  Mo  Mo9  1  0.00000000  0.00000000  0.40673610  1
  Mo  Mo10  1  0.14293072  0.28565207  0.40644229  1
  Mo  Mo11  1  0.57141720  0.14293072  0.40644229  1
  Mo  Mo12  1  0.28565207  0.57141720  0.40644229  1
  Pd  Pd13  1  0.00000000  0.00000000  0.59091061  1
  Pd  Pd14  1  0.33333300  0.33333300  0.59023557  1
  Pd  Pd15  1  0.66666700  0.66666700  0.59047734  1
  O  O16  1  0.38103801  0.09553646  0.44898076  1
  O  O17  1  0.95241102  0.23779911  0.36428614  1
  O  O18  1  0.09495607  0.52396240  0.36415274  1
  O  O19  1  0.52396240  0.38108153  0.36415274  1
  O  O20  1  0.23779911  0.80978987  0.36428614  1
  O  O21  1  0.66666700  0.66666700  0.36431361  1
  O  O22  1  0.38108153  0.09495607  0.36415274  1
  O  O23  1  0.80978987  0.95241102  0.36428614  1
  O  O24  1  0.95252635  0.23829157  0.44917028  1
  O  O25  1  0.09553646  0.52342553  0.44898076  1
  O  O26  1  0.52342553  0.38103801  0.44898076  1
  O  O27  1  0.23829157  0.80918208  0.44917028  1
  O  O28  1  0.66666700  0.66666700  0.44921538  1
  O  O29  1  0.80918208  0.95252635  0.44917028  1
