# generated using pymatgen
data_Hf3(Cr2Se7)2
_symmetry_space_group_name_H-M   'P 1'
_cell_length_a   6.47636199
_cell_length_b   6.47636199
_cell_length_c   30.00000000
_cell_angle_alpha   90.00000000
_cell_angle_beta   90.00000000
_cell_angle_gamma   60.00000014
_symmetry_Int_Tables_number   1
_chemical_formula_structural   Hf3(Cr2Se7)2
_chemical_formula_sum   'Hf3 Cr4 Se14'
_cell_volume   1089.71798074
_cell_formula_units_Z   1
loop_
 _symmetry_equiv_pos_site_id
 _symmetry_equiv_pos_as_xyz
  1  'x, y, z'
loop_
 _atom_site_type_symbol
 _atom_site_label
 _atom_site_symmetry_multiplicity
 _atom_site_fract_x
 _atom_site_fract_y
 _atom_site_fract_z
 _atom_site_occupancy
  Hf  Hf0  1  -0.00000006  0.00000014  0.60839590  1
  Hf  Hf1  1  0.33333330  0.33333278  0.60863669  1
  Hf  Hf2  1  0.66666680  0.66666693  0.60943918  1
  Cr  Cr3  1  0.50120118  0.49910634  0.39078927  1
  Cr  Cr4  1  0.49910651  0.99969275  0.39078910  1
  Cr  Cr5  1  0.00000023  -0.00000012  0.39072237  1
  Cr  Cr6  1  0.99969295  0.50120149  0.39078905  1
  Se  Se7  1  0.66688092  0.00095317  0.66151099  1
  Se  Se8  1  0.00095310  0.33216597  0.66151104  1
  Se  Se9  1  0.99872565  0.66642553  0.55632669  1
  Se  Se10  1  0.66667174  0.16488901  0.44255366  1
  Se  Se11  1  0.66642560  0.33484872  0.55632676  1
  Se  Se12  1  0.33484874  0.99872579  0.55632674  1
  Se  Se13  1  0.16586268  0.16761265  0.33882465  1
  Se  Se14  1  0.16761580  0.66652417  0.33882510  1
  Se  Se15  1  0.66652389  0.16586507  0.33882516  1
  Se  Se16  1  0.66666522  0.66666587  0.33883288  1
  Se  Se17  1  0.16488667  0.16844085  0.44255432  1
  Se  Se18  1  0.16844391  0.66667197  0.44255376  1
  Se  Se19  1  0.33216590  0.66688103  0.66151106  1
  Se  Se20  1  0.66666529  0.66666588  0.44286365  1
