# generated using pymatgen
data_Ni4Te6Mo3O8
_symmetry_space_group_name_H-M   'P 1'
_cell_length_a   5.90787626
_cell_length_b   5.90787626
_cell_length_c   30.00000000
_cell_angle_alpha   90.00000000
_cell_angle_beta   90.00000000
_cell_angle_gamma   59.99999708
_symmetry_Int_Tables_number   1
_chemical_formula_structural   Ni4Te6Mo3O8
_chemical_formula_sum   'Ni4 Te6 Mo3 O8'
_cell_volume   906.80656314
_cell_formula_units_Z   1
loop_
 _symmetry_equiv_pos_site_id
 _symmetry_equiv_pos_as_xyz
  1  'x, y, z'
loop_
 _atom_site_type_symbol
 _atom_site_label
 _atom_site_symmetry_multiplicity
 _atom_site_fract_x
 _atom_site_fract_y
 _atom_site_fract_z
 _atom_site_occupancy
  Ni  Ni0  1  0.99999550  0.99999887  0.58082621  1
  Ni  Ni1  1  0.99974631  0.50011883  0.58096505  1
  Ni  Ni2  1  0.50013797  0.99974856  0.58096614  1
  Ni  Ni3  1  0.50011481  0.50013678  0.58096326  1
  Te  Te4  1  0.33545189  0.99750873  0.45617474  1
  Te  Te5  1  0.00167516  0.66631914  0.33196843  1
  Te  Te6  1  0.66671920  0.33239758  0.33196765  1
  Te  Te7  1  0.33261343  0.00128308  0.33188608  1
  Te  Te8  1  0.66765452  0.33521670  0.45609838  1
  Te  Te9  1  0.99791495  0.66725809  0.45609752  1
  Mo  Mo10  1  0.00054952  0.99999953  0.39406997  1
  Mo  Mo11  1  0.33370854  0.33303211  0.39424402  1
  Mo  Mo12  1  0.66673965  0.66696229  0.39340362  1
  O  O13  1  0.33247628  0.83278769  0.61061031  1
  O  O14  1  0.83471315  0.33248431  0.61060856  1
  O  O15  1  0.66667198  0.66666061  0.55076739  1
  O  O16  1  0.66618593  0.16499118  0.55066758  1
  O  O17  1  0.16882448  0.66619522  0.55066901  1
  O  O18  1  0.16496120  0.16884184  0.55067075  1
  O  O19  1  0.33333513  0.33335037  0.61054181  1
  O  O20  1  0.83281039  0.83470851  0.61061054  1
