# generated using pymatgen
data_Hf4Zr3(Se3O4)2
_symmetry_space_group_name_H-M   'P 1'
_cell_length_a   6.53701400
_cell_length_b   6.53701384
_cell_length_c   30.00000000
_cell_angle_alpha   90.00000000
_cell_angle_beta   90.00000000
_cell_angle_gamma   59.99999917
_symmetry_Int_Tables_number   1
_chemical_formula_structural   Hf4Zr3(Se3O4)2
_chemical_formula_sum   'Hf4 Zr3 Se6 O8'
_cell_volume   1110.22423191
_cell_formula_units_Z   1
loop_
 _symmetry_equiv_pos_site_id
 _symmetry_equiv_pos_as_xyz
  1  'x, y, z'
loop_
 _atom_site_type_symbol
 _atom_site_label
 _atom_site_symmetry_multiplicity
 _atom_site_fract_x
 _atom_site_fract_y
 _atom_site_fract_z
 _atom_site_occupancy
  Hf  Hf0  1  0.00000000  0.00000000  0.58550972  1
  Hf  Hf1  1  0.99982328  0.50014683  0.58518604  1
  Hf  Hf2  1  0.50002989  0.99982328  0.58518604  1
  Hf  Hf3  1  0.50014683  0.50002989  0.58518604  1
  Zr  Zr4  1  0.66666700  0.66666700  0.39557056  1
  Zr  Zr5  1  0.33333300  0.33333300  0.39672113  1
  Zr  Zr6  1  0.00000000  0.00000000  0.39668710  1
  Se  Se7  1  0.33484627  0.99840560  0.44921442  1
  Se  Se8  1  0.66667658  0.00128656  0.34317936  1
  Se  Se9  1  0.33203686  0.66667658  0.34317936  1
  Se  Se10  1  0.00128656  0.33203686  0.34317936  1
  Se  Se11  1  0.99840560  0.66674813  0.44921442  1
  Se  Se12  1  0.66674813  0.33484627  0.44921442  1
  O  O13  1  0.33333300  0.33333300  0.61690455  1
  O  O14  1  0.33389960  0.83303638  0.61707377  1
  O  O15  1  0.66666700  0.66666700  0.55344083  1
  O  O16  1  0.66727599  0.16560828  0.55371011  1
  O  O17  1  0.16711673  0.66727599  0.55371011  1
  O  O18  1  0.16560828  0.16711673  0.55371011  1
  O  O19  1  0.83306303  0.33389960  0.61707377  1
  O  O20  1  0.83303638  0.83306303  0.61707377  1
