# generated using pymatgen
data_Pd3(W2S7)2
_symmetry_space_group_name_H-M   'P 1'
_cell_length_a   6.26323421
_cell_length_b   6.26323400
_cell_length_c   30.00000000
_cell_angle_alpha   90.00000000
_cell_angle_beta   90.00000000
_cell_angle_gamma   60.00000113
_symmetry_Int_Tables_number   1
_chemical_formula_structural   Pd3(W2S7)2
_chemical_formula_sum   'Pd3 W4 S14'
_cell_volume   1019.17598412
_cell_formula_units_Z   1
loop_
 _symmetry_equiv_pos_site_id
 _symmetry_equiv_pos_as_xyz
  1  'x, y, z'
loop_
 _atom_site_type_symbol
 _atom_site_label
 _atom_site_symmetry_multiplicity
 _atom_site_fract_x
 _atom_site_fract_y
 _atom_site_fract_z
 _atom_site_occupancy
  Pd  Pd0  1  0.00000000  0.00000000  0.59223981  1
  Pd  Pd1  1  0.33333300  0.33333300  0.59241549  1
  Pd  Pd2  1  0.66666700  0.66666700  0.59338628  1
  W  W3  1  0.49937753  0.50075826  0.39455286  1
  W  W4  1  0.50075826  0.99986421  0.39455286  1
  W  W5  1  0.00000000  0.00000000  0.39451859  1
  W  W6  1  0.99986421  0.49937753  0.39455286  1
  S  S7  1  0.66696687  0.33085698  0.63277527  1
  S  S8  1  0.00217615  0.66696687  0.63277527  1
  S  S9  1  0.66625050  0.99691806  0.55293968  1
  S  S10  1  0.66661213  0.16818515  0.44730600  1
  S  S11  1  0.33683144  0.66625050  0.55293968  1
  S  S12  1  0.99691806  0.33683144  0.55293968  1
  S  S13  1  0.16729202  0.16611415  0.34160922  1
  S  S14  1  0.16611415  0.66659483  0.34160922  1
  S  S15  1  0.66659483  0.16729202  0.34160922  1
  S  S16  1  0.66666700  0.66666700  0.34163530  1
  S  S17  1  0.16818515  0.16520372  0.44730600  1
  S  S18  1  0.16520372  0.66661213  0.44730600  1
  S  S19  1  0.33085698  0.00217615  0.63277527  1
  S  S20  1  0.66666700  0.66666700  0.44758446  1
