# generated using pymatgen
data_Ni4Te6Pt3Se8
_symmetry_space_group_name_H-M   'P 1'
_cell_length_a   7.01934021
_cell_length_b   7.01934100
_cell_length_c   30.00000000
_cell_angle_alpha   90.00000000
_cell_angle_beta   90.00000000
_cell_angle_gamma   60.00000099
_symmetry_Int_Tables_number   1
_chemical_formula_structural   Ni4Te6Pt3Se8
_chemical_formula_sum   'Ni4 Te6 Pt3 Se8'
_cell_volume   1280.10184581
_cell_formula_units_Z   1
loop_
 _symmetry_equiv_pos_site_id
 _symmetry_equiv_pos_as_xyz
  1  'x, y, z'
loop_
 _atom_site_type_symbol
 _atom_site_label
 _atom_site_symmetry_multiplicity
 _atom_site_fract_x
 _atom_site_fract_y
 _atom_site_fract_z
 _atom_site_occupancy
  Ni  Ni0  1  0.00000000  0.00000000  0.58740225  1
  Ni  Ni1  1  0.99885061  0.49238868  0.58828553  1
  Ni  Ni2  1  0.50876070  0.99885061  0.58828553  1
  Ni  Ni3  1  0.49238868  0.50876070  0.58828553  1
  Te  Te4  1  0.34137302  0.66518596  0.45618173  1
  Te  Te5  1  0.00624404  0.66842983  0.36509539  1
  Te  Te6  1  0.66842983  0.32532613  0.36509539  1
  Te  Te7  1  0.32532613  0.00624404  0.36509539  1
  Te  Te8  1  0.66518596  0.99344102  0.45618173  1
  Te  Te9  1  0.99344102  0.34137302  0.45618173  1
  Pt  Pt10  1  0.00000000  0.00000000  0.41326395  1
  Pt  Pt11  1  0.33333300  0.33333300  0.41183054  1
  Pt  Pt12  1  0.66666700  0.66666700  0.40792943  1
  Se  Se13  1  0.33338546  0.84232012  0.63036924  1
  Se  Se14  1  0.82429342  0.33338546  0.63036924  1
  Se  Se15  1  0.66666700  0.66666700  0.54606241  1
  Se  Se16  1  0.66435967  0.17552546  0.54684056  1
  Se  Se17  1  0.16011586  0.66435967  0.54684056  1
  Se  Se18  1  0.17552546  0.16011586  0.54684056  1
  Se  Se19  1  0.33333300  0.33333300  0.63035110  1
  Se  Se20  1  0.84232012  0.82429342  0.63036924  1
