# generated using pymatgen
data_HfSeS
_symmetry_space_group_name_H-M   'P 1'
_cell_length_a   6.25321384
_cell_length_b   6.25321384
_cell_length_c   30.00000000
_cell_angle_alpha   90.00000000
_cell_angle_beta   90.00000000
_cell_angle_gamma   60.00000164
_symmetry_Int_Tables_number   1
_chemical_formula_structural   HfSeS
_chemical_formula_sum   'Hf6 Se6 S6'
_cell_volume   1015.91753192
_cell_formula_units_Z   6
loop_
 _symmetry_equiv_pos_site_id
 _symmetry_equiv_pos_as_xyz
  1  'x, y, z'
loop_
 _atom_site_type_symbol
 _atom_site_label
 _atom_site_symmetry_multiplicity
 _atom_site_fract_x
 _atom_site_fract_y
 _atom_site_fract_z
 _atom_site_occupancy
  Hf  Hf0  1  0.00000000  0.00000000  0.61274301  1
  Hf  Hf1  1  0.33333300  0.33333300  0.61274301  1
  Hf  Hf2  1  0.66666700  0.66666700  0.61274301  1
  Hf  Hf3  1  0.66666700  0.66666700  0.38350712  1
  Hf  Hf4  1  0.33333300  0.33333300  0.38350712  1
  Hf  Hf5  1  0.00000000  0.00000000  0.38350712  1
  Se  Se6  1  0.33333300  0.00000000  0.43971476  1
  Se  Se7  1  0.00000000  0.66666700  0.32713322  1
  Se  Se8  1  0.66666700  0.33333300  0.32713322  1
  Se  Se9  1  0.33333300  0.00000000  0.32713322  1
  Se  Se10  1  0.00000000  0.66666700  0.43971476  1
  Se  Se11  1  0.66666700  0.33333300  0.43971476  1
  S  S12  1  0.66666700  0.33333300  0.66421546  1
  S  S13  1  0.33333300  0.00000000  0.66421546  1
  S  S14  1  0.00000000  0.66666700  0.56142843  1
  S  S15  1  0.66666700  0.33333300  0.56142843  1
  S  S16  1  0.33333300  0.00000000  0.56142843  1
  S  S17  1  0.00000000  0.66666700  0.66421546  1
