# generated using pymatgen
data_Hf3Ge4(Se3O4)2
_symmetry_space_group_name_H-M   'P 1'
_cell_length_a   6.08490400
_cell_length_b   6.08490448
_cell_length_c   30.00000000
_cell_angle_alpha   90.00000000
_cell_angle_beta   90.00000000
_cell_angle_gamma   60.00000262
_symmetry_Int_Tables_number   1
_chemical_formula_structural   Hf3Ge4(Se3O4)2
_chemical_formula_sum   'Hf3 Ge4 Se6 O8'
_cell_volume   961.96527242
_cell_formula_units_Z   1
loop_
 _symmetry_equiv_pos_site_id
 _symmetry_equiv_pos_as_xyz
  1  'x, y, z'
loop_
 _atom_site_type_symbol
 _atom_site_label
 _atom_site_symmetry_multiplicity
 _atom_site_fract_x
 _atom_site_fract_y
 _atom_site_fract_z
 _atom_site_occupancy
  Hf  Hf0  1  0.66666658  0.66666663  0.38806175  1
  Hf  Hf1  1  0.33333323  0.33333328  0.39482289  1
  Hf  Hf2  1  0.99999996  0.99999989  0.39534381  1
  Ge  Ge3  1  0.00000006  0.00000005  0.58582078  1
  Ge  Ge4  1  0.99990904  0.49996813  0.58566657  1
  Ge  Ge5  1  0.50012297  0.99990903  0.58566657  1
  Ge  Ge6  1  0.49996814  0.50012295  0.58566658  1
  Se  Se7  1  0.99321962  0.34065544  0.44987557  1
  Se  Se8  1  0.66713780  0.00686145  0.33543981  1
  Se  Se9  1  0.32600043  0.66713790  0.33543980  1
  Se  Se10  1  0.00686145  0.32600048  0.33543981  1
  Se  Se11  1  0.66612485  0.99321954  0.44987557  1
  Se  Se12  1  0.34065542  0.66612488  0.44987557  1
  O  O13  1  0.33333329  0.33333306  0.61686530  1
  O  O14  1  0.33358916  0.83264149  0.61695533  1
  O  O15  1  0.66666675  0.66666704  0.55428304  1
  O  O16  1  0.66690134  0.16756634  0.55445454  1
  O  O17  1  0.16553319  0.66690112  0.55445454  1
  O  O18  1  0.16756640  0.16553315  0.55445454  1
  O  O19  1  0.83376882  0.33358932  0.61695532  1
  O  O20  1  0.83264150  0.83376884  0.61695531  1
