# generated using pymatgen
data_MoPt(SeO)2
_symmetry_space_group_name_H-M   'P 1'
_cell_length_a   3.23126871
_cell_length_b   3.23126900
_cell_length_c   30.00000000
_cell_angle_alpha   90.00000000
_cell_angle_beta   90.00000000
_cell_angle_gamma   60.00000732
_symmetry_Int_Tables_number   1
_chemical_formula_structural   MoPt(SeO)2
_chemical_formula_sum   'Mo1 Pt1 Se2 O2'
_cell_volume   271.26771450
_cell_formula_units_Z   1
loop_
 _symmetry_equiv_pos_site_id
 _symmetry_equiv_pos_as_xyz
  1  'x, y, z'
loop_
 _atom_site_type_symbol
 _atom_site_label
 _atom_site_symmetry_multiplicity
 _atom_site_fract_x
 _atom_site_fract_y
 _atom_site_fract_z
 _atom_site_occupancy
  Mo  Mo0  1  0.00000000  0.00000000  0.39189978  1
  Pt  Pt1  1  0.00000000  0.00000000  0.58415454  1
  Se  Se2  1  0.33333300  0.33333300  0.33529585  1
  Se  Se3  1  0.33333300  0.33333300  0.44849503  1
  O  O4  1  0.33333300  0.33333300  0.55435607  1
  O  O5  1  0.66666700  0.66666700  0.61404472  1
