# generated using pymatgen
data_ZrTiS4
_symmetry_space_group_name_H-M   'P 1'
_cell_length_a   3.45736395
_cell_length_b   3.45736400
_cell_length_c   30.00000000
_cell_angle_alpha   90.00000000
_cell_angle_beta   90.00000000
_cell_angle_gamma   59.99999955
_symmetry_Int_Tables_number   1
_chemical_formula_structural   ZrTiS4
_chemical_formula_sum   'Zr1 Ti1 S4'
_cell_volume   310.55754843
_cell_formula_units_Z   1
loop_
 _symmetry_equiv_pos_site_id
 _symmetry_equiv_pos_as_xyz
  1  'x, y, z'
loop_
 _atom_site_type_symbol
 _atom_site_label
 _atom_site_symmetry_multiplicity
 _atom_site_fract_x
 _atom_site_fract_y
 _atom_site_fract_z
 _atom_site_occupancy
  Zr  Zr0  1  0.00000000  0.00000000  0.38940405  1
  Ti  Ti1  1  0.00000000  0.00000000  0.60854432  1
  S  S2  1  0.33333300  0.33333300  0.55957440  1
  S  S3  1  0.33333300  0.33333300  0.65795400  1
  S  S4  1  0.33333300  0.33333300  0.33592864  1
  S  S5  1  0.33333300  0.33333300  0.44268060  1
