# generated using pymatgen
data_Ni4Te6Pd3S8
_symmetry_space_group_name_H-M   'P 1'
_cell_length_a   6.83284445
_cell_length_b   6.83284445
_cell_length_c   30.00000000
_cell_angle_alpha   90.00000000
_cell_angle_beta   90.00000000
_cell_angle_gamma   59.99999567
_symmetry_Int_Tables_number   1
_chemical_formula_structural   Ni4Te6Pd3S8
_chemical_formula_sum   'Ni4 Te6 Pd3 S8'
_cell_volume   1212.98361732
_cell_formula_units_Z   1
loop_
 _symmetry_equiv_pos_site_id
 _symmetry_equiv_pos_as_xyz
  1  'x, y, z'
loop_
 _atom_site_type_symbol
 _atom_site_label
 _atom_site_symmetry_multiplicity
 _atom_site_fract_x
 _atom_site_fract_y
 _atom_site_fract_z
 _atom_site_occupancy
  Ni  Ni0  1  0.00000000  0.00000000  0.58268521  1
  Ni  Ni1  1  0.99896312  0.49518542  0.58405486  1
  Ni  Ni2  1  0.50585146  0.99896312  0.58405486  1
  Ni  Ni3  1  0.49518542  0.50585146  0.58405486  1
  Te  Te4  1  0.34517494  0.66657055  0.46125359  1
  Te  Te5  1  0.01252312  0.66855653  0.36654969  1
  Te  Te6  1  0.66855653  0.31892035  0.36654969  1
  Te  Te7  1  0.31892035  0.01252312  0.36654969  1
  Te  Te8  1  0.66657055  0.98825451  0.46125359  1
  Te  Te9  1  0.98825451  0.34517494  0.46125359  1
  Pd  Pd10  1  0.00000000  0.00000000  0.41757110  1
  Pd  Pd11  1  0.33333300  0.33333300  0.41598085  1
  Pd  Pd12  1  0.66666700  0.66666700  0.40920954  1
  S  S13  1  0.33186130  0.84176036  0.62191809  1
  S  S14  1  0.82637734  0.33186130  0.62191809  1
  S  S15  1  0.66666700  0.66666700  0.54548386  1
  S  S16  1  0.66514301  0.17000818  0.54569303  1
  S  S17  1  0.16484981  0.66514301  0.54569303  1
  S  S18  1  0.17000818  0.16484981  0.54569303  1
  S  S19  1  0.33333300  0.33333300  0.62225464  1
  S  S20  1  0.84176036  0.82637734  0.62191809  1
