# generated using pymatgen
data_Hf3Pd4(S3O4)2
_symmetry_space_group_name_H-M   'P 1'
_cell_length_a   6.25590500
_cell_length_b   6.25590418
_cell_length_c   30.00000000
_cell_angle_alpha   90.00000000
_cell_angle_beta   90.00000000
_cell_angle_gamma   60.00000097
_symmetry_Int_Tables_number   1
_chemical_formula_structural   Hf3Pd4(S3O4)2
_chemical_formula_sum   'Hf3 Pd4 S6 O8'
_cell_volume   1016.79200831
_cell_formula_units_Z   1
loop_
 _symmetry_equiv_pos_site_id
 _symmetry_equiv_pos_as_xyz
  1  'x, y, z'
loop_
 _atom_site_type_symbol
 _atom_site_label
 _atom_site_symmetry_multiplicity
 _atom_site_fract_x
 _atom_site_fract_y
 _atom_site_fract_z
 _atom_site_occupancy
  Hf  Hf0  1  0.00000000  0.00000000  0.59302889  1
  Hf  Hf1  1  0.33333300  0.33333300  0.59335845  1
  Hf  Hf2  1  0.66666700  0.66666700  0.59310857  1
  Pd  Pd3  1  0.49989624  0.49997343  0.41909192  1
  Pd  Pd4  1  0.49997343  0.00013033  0.41909192  1
  Pd  Pd5  1  0.00000000  0.00000000  0.41905572  1
  Pd  Pd6  1  0.00013033  0.49989624  0.41909192  1
  S  S7  1  0.66703715  0.33332872  0.64172596  1
  S  S8  1  0.99963413  0.66703715  0.64172596  1
  S  S9  1  0.66605464  0.00063076  0.54490740  1
  S  S10  1  0.33331460  0.66605464  0.54490740  1
  S  S11  1  0.00063076  0.33331460  0.54490740  1
  S  S12  1  0.33332872  0.99963413  0.64172596  1
  O  O13  1  0.83420509  0.83247544  0.45065841  1
  O  O14  1  0.16709082  0.16612747  0.38740653  1
  O  O15  1  0.16612747  0.66678271  0.38740653  1
  O  O16  1  0.66678271  0.16709082  0.38740653  1
  O  O17  1  0.66666700  0.66666700  0.38743688  1
  O  O18  1  0.33331846  0.83420509  0.45065841  1
  O  O19  1  0.33333300  0.33333300  0.45080585  1
  O  O20  1  0.83247544  0.33331846  0.45065841  1
