# generated using pymatgen
data_Sn4Te6Pd3O8
_symmetry_space_group_name_H-M   'P 1'
_cell_length_a   6.70318569
_cell_length_b   6.70318569
_cell_length_c   30.00000000
_cell_angle_alpha   90.00000000
_cell_angle_beta   90.00000000
_cell_angle_gamma   60.00000310
_symmetry_Int_Tables_number   1
_chemical_formula_structural   Sn4Te6Pd3O8
_chemical_formula_sum   'Sn4 Te6 Pd3 O8'
_cell_volume   1167.38578323
_cell_formula_units_Z   1
loop_
 _symmetry_equiv_pos_site_id
 _symmetry_equiv_pos_as_xyz
  1  'x, y, z'
loop_
 _atom_site_type_symbol
 _atom_site_label
 _atom_site_symmetry_multiplicity
 _atom_site_fract_x
 _atom_site_fract_y
 _atom_site_fract_z
 _atom_site_occupancy
  Sn  Sn0  1  0.00037213  0.49981077  0.41512375  1
  Sn  Sn1  1  0.49981077  0.49981710  0.41512375  1
  Sn  Sn2  1  0.49981710  0.00037213  0.41512375  1
  Sn  Sn3  1  0.00000000  0.00000000  0.41486782  1
  Te  Te4  1  0.33419872  0.01213082  0.54557031  1
  Te  Te5  1  0.65367047  0.33419872  0.54557031  1
  Te  Te6  1  0.01213082  0.65367047  0.54557031  1
  Te  Te7  1  0.33254919  0.67819226  0.64383007  1
  Te  Te8  1  0.67819226  0.98925855  0.64383007  1
  Te  Te9  1  0.98925855  0.33254919  0.64383007  1
  Pd  Pd10  1  0.00000000  0.00000000  0.59248855  1
  Pd  Pd11  1  0.66666700  0.66666700  0.59282191  1
  Pd  Pd12  1  0.33333300  0.33333300  0.59786396  1
  O  O13  1  0.16746313  0.16589957  0.38352440  1
  O  O14  1  0.16589957  0.66663830  0.38352440  1
  O  O15  1  0.66663830  0.16746313  0.38352440  1
  O  O16  1  0.66666700  0.66666700  0.38377946  1
  O  O17  1  0.33284088  0.83197988  0.44794185  1
  O  O18  1  0.33333300  0.33333300  0.44795815  1
  O  O19  1  0.83197988  0.83517825  0.44794185  1
  O  O20  1  0.83517825  0.33284088  0.44794185  1
