# generated using pymatgen
data_Hf3Cr4(Se3S4)2
_symmetry_space_group_name_H-M   'P 1'
_cell_length_a   6.31176626
_cell_length_b   6.31176626
_cell_length_c   30.00000000
_cell_angle_alpha   90.00000000
_cell_angle_beta   90.00000000
_cell_angle_gamma   59.99999727
_symmetry_Int_Tables_number   1
_chemical_formula_structural   Hf3Cr4(Se3S4)2
_chemical_formula_sum   'Hf3 Cr4 Se6 S8'
_cell_volume   1035.03179163
_cell_formula_units_Z   1
loop_
 _symmetry_equiv_pos_site_id
 _symmetry_equiv_pos_as_xyz
  1  'x, y, z'
loop_
 _atom_site_type_symbol
 _atom_site_label
 _atom_site_symmetry_multiplicity
 _atom_site_fract_x
 _atom_site_fract_y
 _atom_site_fract_z
 _atom_site_occupancy
  Hf  Hf0  1  0.00000000  0.00000000  0.60713628  1
  Hf  Hf1  1  0.33333300  0.33333300  0.60741836  1
  Hf  Hf2  1  0.66666700  0.66666700  0.60836516  1
  Cr  Cr3  1  0.50073405  0.49947318  0.39497881  1
  Cr  Cr4  1  0.49947318  0.99979277  0.39497881  1
  Cr  Cr5  1  0.00000000  0.00000000  0.39496557  1
  Cr  Cr6  1  0.99979277  0.50073405  0.39497881  1
  Se  Se7  1  0.66695484  0.00119404  0.66174850  1
  Se  Se8  1  0.00119404  0.33185112  0.66174850  1
  Se  Se9  1  0.99847694  0.66634214  0.55377731  1
  Se  Se10  1  0.66634214  0.33518092  0.55377731  1
  Se  Se11  1  0.33518092  0.99847694  0.55377731  1
  Se  Se12  1  0.33185112  0.66695484  0.66174850  1
  S  S13  1  0.66657377  0.16529366  0.44266028  1
  S  S14  1  0.16623552  0.16710574  0.34709413  1
  S  S15  1  0.16710574  0.66665975  0.34709413  1
  S  S16  1  0.66665975  0.16623552  0.34709413  1
  S  S17  1  0.66666700  0.66666700  0.34710063  1
  S  S18  1  0.16529366  0.16813356  0.44266028  1
  S  S19  1  0.16813356  0.66657377  0.44266028  1
  S  S20  1  0.66666700  0.66666700  0.44291286  1
