# generated using pymatgen
data_Ti4Te8(MoO2)7
_symmetry_space_group_name_H-M   'P 1'
_cell_length_a   7.46619118
_cell_length_b   7.46619100
_cell_length_c   30.00000000
_cell_angle_alpha   90.00000000
_cell_angle_beta   90.00000000
_cell_angle_gamma   59.99999639
_symmetry_Int_Tables_number   1
_chemical_formula_structural   Ti4Te8(MoO2)7
_chemical_formula_sum   'Ti4 Te8 Mo7 O14'
_cell_volume   1448.27179545
_cell_formula_units_Z   1
loop_
 _symmetry_equiv_pos_site_id
 _symmetry_equiv_pos_as_xyz
  1  'x, y, z'
loop_
 _atom_site_type_symbol
 _atom_site_label
 _atom_site_symmetry_multiplicity
 _atom_site_fract_x
 _atom_site_fract_y
 _atom_site_fract_z
 _atom_site_occupancy
  Ti  Ti0  1  0.49978996  0.49985908  0.39017598  1
  Ti  Ti1  1  0.49985908  0.00035096  0.39017598  1
  Ti  Ti2  1  0.00035096  0.49978996  0.39017598  1
  Ti  Ti3  1  0.00000000  0.00000000  0.39234110  1
  Te  Te4  1  0.66666700  0.66666700  0.44855295  1
  Te  Te5  1  0.16802168  0.66508475  0.44971314  1
  Te  Te6  1  0.16689457  0.16802168  0.44971314  1
  Te  Te7  1  0.66666700  0.66666700  0.33092678  1
  Te  Te8  1  0.66832047  0.16627072  0.33162352  1
  Te  Te9  1  0.16540982  0.66832047  0.33162352  1
  Te  Te10  1  0.16627072  0.16540982  0.33162352  1
  Te  Te11  1  0.66508475  0.16689457  0.44971314  1
  Mo  Mo12  1  0.00000000  0.00000000  0.59417483  1
  Mo  Mo13  1  0.14284081  0.28560896  0.59426943  1
  Mo  Mo14  1  0.57155023  0.14284081  0.59426943  1
  Mo  Mo15  1  0.28560896  0.57155023  0.59426943  1
  Mo  Mo16  1  0.71411095  0.42867837  0.59442608  1
  Mo  Mo17  1  0.42867837  0.85721068  0.59442608  1
  Mo  Mo18  1  0.85721068  0.71411095  0.59442608  1
  O  O19  1  0.80963638  0.95175580  0.55291362  1
  O  O20  1  0.95175580  0.23860783  0.55291362  1
  O  O21  1  0.09502275  0.52356256  0.55294153  1
  O  O22  1  0.52356256  0.38141469  0.55294153  1
  O  O23  1  0.23860783  0.80963638  0.55291362  1
  O  O24  1  0.80976068  0.95249626  0.63551140  1
  O  O25  1  0.38100666  0.09545797  0.63554607  1
  O  O26  1  0.66666700  0.66666700  0.63573585  1
  O  O27  1  0.23774306  0.80976068  0.63551140  1
  O  O28  1  0.66666700  0.66666700  0.55322519  1
  O  O29  1  0.09545797  0.52353537  0.63554607  1
  O  O30  1  0.95249626  0.23774306  0.63551140  1
  O  O31  1  0.38141469  0.09502275  0.55294153  1
  O  O32  1  0.52353537  0.38100666  0.63554607  1
