# generated using pymatgen
data_Hf3Ti4(Se3S4)2
_symmetry_space_group_name_H-M   'P 1'
_cell_length_a   6.60951038
_cell_length_b   6.60951100
_cell_length_c   30.00000000
_cell_angle_alpha   90.00000000
_cell_angle_beta   90.00000000
_cell_angle_gamma   60.00000188
_symmetry_Int_Tables_number   1
_chemical_formula_structural   Hf3Ti4(Se3S4)2
_chemical_formula_sum   'Hf3 Ti4 Se6 S8'
_cell_volume   1134.98602206
_cell_formula_units_Z   1
loop_
 _symmetry_equiv_pos_site_id
 _symmetry_equiv_pos_as_xyz
  1  'x, y, z'
loop_
 _atom_site_type_symbol
 _atom_site_label
 _atom_site_symmetry_multiplicity
 _atom_site_fract_x
 _atom_site_fract_y
 _atom_site_fract_z
 _atom_site_occupancy
  Hf  Hf0  1  0.00000000  0.00000000  0.60588966  1
  Hf  Hf1  1  0.33333300  0.33333300  0.60578421  1
  Hf  Hf2  1  0.66666700  0.66666700  0.60676129  1
  Ti  Ti3  1  0.49955520  0.50060857  0.39505047  1
  Ti  Ti4  1  0.50060857  0.99983622  0.39505047  1
  Ti  Ti5  1  0.00000000  0.00000000  0.39434517  1
  Ti  Ti6  1  0.99983622  0.49955520  0.39505047  1
  Se  Se7  1  0.66653441  0.33240038  0.65775304  1
  Se  Se8  1  0.00106521  0.66653441  0.65775304  1
  Se  Se9  1  0.66687775  0.99854212  0.55486596  1
  Se  Se10  1  0.33458013  0.66687775  0.55486596  1
  Se  Se11  1  0.99854212  0.33458013  0.55486596  1
  Se  Se12  1  0.33240038  0.00106521  0.65775304  1
  S  S13  1  0.66706403  0.16872627  0.44511776  1
  S  S14  1  0.16671768  0.16710495  0.34423557  1
  S  S15  1  0.16710495  0.66617836  0.34423557  1
  S  S16  1  0.66617836  0.16671768  0.34423557  1
  S  S17  1  0.66666700  0.66666700  0.34453296  1
  S  S18  1  0.16872627  0.16421070  0.44511776  1
  S  S19  1  0.16421070  0.66706403  0.44511776  1
  S  S20  1  0.66666700  0.66666700  0.44565832  1
