# generated using pymatgen
data_Hf4Mo7(Se4O7)2
_symmetry_space_group_name_H-M   'P 1'
_cell_length_a   7.50071051
_cell_length_b   7.50071000
_cell_length_c   30.00000000
_cell_angle_alpha   90.00000000
_cell_angle_beta   90.00000000
_cell_angle_gamma   60.00000227
_symmetry_Int_Tables_number   1
_chemical_formula_structural   Hf4Mo7(Se4O7)2
_chemical_formula_sum   'Hf4 Mo7 Se8 O14'
_cell_volume   1461.69471067
_cell_formula_units_Z   1
loop_
 _symmetry_equiv_pos_site_id
 _symmetry_equiv_pos_as_xyz
  1  'x, y, z'
loop_
 _atom_site_type_symbol
 _atom_site_label
 _atom_site_symmetry_multiplicity
 _atom_site_fract_x
 _atom_site_fract_y
 _atom_site_fract_z
 _atom_site_occupancy
  Hf  Hf0  1  0.00000000  0.00000000  0.60026892  1
  Hf  Hf1  1  0.99982288  0.49986039  0.60053800  1
  Hf  Hf2  1  0.50031673  0.99982288  0.60053800  1
  Hf  Hf3  1  0.49986039  0.50031673  0.60053800  1
  Mo  Mo4  1  0.71435095  0.85700983  0.40675759  1
  Mo  Mo5  1  0.85700983  0.42863922  0.40675759  1
  Mo  Mo6  1  0.57141951  0.28562236  0.40678423  1
  Mo  Mo7  1  0.14295813  0.57141951  0.40678423  1
  Mo  Mo8  1  0.28562236  0.14295813  0.40678423  1
  Mo  Mo9  1  0.00000000  0.00000000  0.40649262  1
  Mo  Mo10  1  0.42863922  0.71435095  0.40675759  1
  Se  Se11  1  0.83326181  0.33311667  0.65305971  1
  Se  Se12  1  0.33333300  0.33333300  0.65316661  1
  Se  Se13  1  0.33311667  0.83362052  0.65305971  1
  Se  Se14  1  0.66666700  0.66666700  0.54808481  1
  Se  Se15  1  0.66595890  0.16752245  0.54831345  1
  Se  Se16  1  0.16651965  0.66595890  0.54831345  1
  Se  Se17  1  0.16752245  0.16651965  0.54831345  1
  Se  Se18  1  0.83362052  0.83326181  0.65305971  1
  O  O19  1  0.47597272  0.90505298  0.44790728  1
  O  O20  1  0.61897430  0.47597272  0.44790728  1
  O  O21  1  0.19037241  0.76268275  0.44767525  1
  O  O22  1  0.33333300  0.33333300  0.44800217  1
  O  O23  1  0.04694485  0.19037241  0.44767525  1
  O  O24  1  0.76153750  0.04760278  0.36557430  1
  O  O25  1  0.19085973  0.76153750  0.36557430  1
  O  O26  1  0.47620636  0.90482557  0.36570745  1
  O  O27  1  0.61896807  0.47620636  0.36570745  1
  O  O28  1  0.33333300  0.33333300  0.36574209  1
  O  O29  1  0.04760278  0.19085973  0.36557430  1
  O  O30  1  0.90505298  0.61897430  0.44790728  1
  O  O31  1  0.90482557  0.61896807  0.36570745  1
  O  O32  1  0.76268275  0.04694485  0.44767525  1
