# generated using pymatgen
data_TiMoO4
_symmetry_space_group_name_H-M   'P 1'
_cell_length_a   5.02727624
_cell_length_b   5.02727624
_cell_length_c   30.00000000
_cell_angle_alpha   90.00000000
_cell_angle_beta   90.00000000
_cell_angle_gamma   59.99999690
_symmetry_Int_Tables_number   1
_chemical_formula_structural   TiMoO4
_chemical_formula_sum   'Ti3 Mo3 O12'
_cell_volume   656.62493573
_cell_formula_units_Z   3
loop_
 _symmetry_equiv_pos_site_id
 _symmetry_equiv_pos_as_xyz
  1  'x, y, z'
loop_
 _atom_site_type_symbol
 _atom_site_label
 _atom_site_symmetry_multiplicity
 _atom_site_fract_x
 _atom_site_fract_y
 _atom_site_fract_z
 _atom_site_occupancy
  Ti  Ti0  1  0.00000000  0.00000000  0.57402025  1
  Ti  Ti1  1  0.33333300  0.33333300  0.57402025  1
  Ti  Ti2  1  0.66666700  0.66666700  0.57402025  1
  Mo  Mo3  1  0.66666700  0.66666700  0.41752563  1
  Mo  Mo4  1  0.33333300  0.33333300  0.41752563  1
  Mo  Mo5  1  0.00000000  0.00000000  0.41752563  1
  O  O6  1  0.00000000  0.33333300  0.45787832  1
  O  O7  1  0.66666700  0.00000000  0.37700446  1
  O  O8  1  0.33333300  0.66666700  0.37700446  1
  O  O9  1  0.00000000  0.33333300  0.37700446  1
  O  O10  1  0.00000000  0.33333300  0.60805904  1
  O  O11  1  0.66666700  0.00000000  0.60805904  1
  O  O12  1  0.33333300  0.66666700  0.60805904  1
  O  O13  1  0.00000000  0.66666700  0.54014130  1
  O  O14  1  0.66666700  0.33333300  0.54014130  1
  O  O15  1  0.33333300  0.00000000  0.54014130  1
  O  O16  1  0.33333300  0.66666700  0.45787832  1
  O  O17  1  0.66666700  0.00000000  0.45787832  1
