# generated using pymatgen
data_ZrTe4Pd
_symmetry_space_group_name_H-M   'P 1'
_cell_length_a   3.96881285
_cell_length_b   3.96881300
_cell_length_c   30.00000000
_cell_angle_alpha   90.00000000
_cell_angle_beta   90.00000000
_cell_angle_gamma   60.00000711
_symmetry_Int_Tables_number   1
_chemical_formula_structural   ZrTe4Pd
_chemical_formula_sum   'Zr1 Te4 Pd1'
_cell_volume   409.23538142
_cell_formula_units_Z   1
loop_
 _symmetry_equiv_pos_site_id
 _symmetry_equiv_pos_as_xyz
  1  'x, y, z'
loop_
 _atom_site_type_symbol
 _atom_site_label
 _atom_site_symmetry_multiplicity
 _atom_site_fract_x
 _atom_site_fract_y
 _atom_site_fract_z
 _atom_site_occupancy
  Zr  Zr0  1  0.00000000  0.00000000  0.37973264  1
  Te  Te1  1  0.33333300  0.33333300  0.55748315  1
  Te  Te2  1  0.66666700  0.66666700  0.65120222  1
  Te  Te3  1  0.33333300  0.33333300  0.31822249  1
  Te  Te4  1  0.33333300  0.33333300  0.44077549  1
  Pd  Pd5  1  0.00000000  0.00000000  0.60404302  1
