# generated using pymatgen
data_Ti3Ni4(S3O4)2
_symmetry_space_group_name_H-M   'P 1'
_cell_length_a   5.73114014
_cell_length_b   5.73114014
_cell_length_c   30.00000000
_cell_angle_alpha   90.00000000
_cell_angle_beta   90.00000000
_cell_angle_gamma   59.99999833
_symmetry_Int_Tables_number   1
_chemical_formula_structural   Ti3Ni4(S3O4)2
_chemical_formula_sum   'Ti3 Ni4 S6 O8'
_cell_volume   853.36325000
_cell_formula_units_Z   1
loop_
 _symmetry_equiv_pos_site_id
 _symmetry_equiv_pos_as_xyz
  1  'x, y, z'
loop_
 _atom_site_type_symbol
 _atom_site_label
 _atom_site_symmetry_multiplicity
 _atom_site_fract_x
 _atom_site_fract_y
 _atom_site_fract_z
 _atom_site_occupancy
  Ti  Ti0  1  0.66666700  0.66666700  0.40012852  1
  Ti  Ti1  1  0.33333300  0.33333300  0.40780227  1
  Ti  Ti2  1  0.00000000  0.00000000  0.40972098  1
  Ni  Ni3  1  0.00000000  0.00000000  0.57934683  1
  Ni  Ni4  1  0.99983754  0.50020287  0.57936200  1
  Ni  Ni5  1  0.49995960  0.99983754  0.57936200  1
  Ni  Ni6  1  0.50020287  0.49995960  0.57936200  1
  S  S7  1  0.34045295  0.99447133  0.45589286  1
  S  S8  1  0.00640672  0.66780164  0.35532179  1
  S  S9  1  0.66780164  0.32579164  0.35532179  1
  S  S10  1  0.32579164  0.00640672  0.35532179  1
  S  S11  1  0.99447133  0.66507572  0.45589286  1
  S  S12  1  0.66507572  0.34045295  0.45589286  1
  O  O13  1  0.33333300  0.33333300  0.61020444  1
  O  O14  1  0.33298704  0.83261447  0.61027934  1
  O  O15  1  0.66666700  0.66666700  0.54830267  1
  O  O16  1  0.66667276  0.16594658  0.54831710  1
  O  O17  1  0.16738166  0.66667276  0.54831710  1
  O  O18  1  0.16594658  0.16738166  0.54831710  1
  O  O19  1  0.83439749  0.33298704  0.61027934  1
  O  O20  1  0.83261447  0.83439749  0.61027934  1
