# generated using pymatgen
data_Hf4Pd3(Se3O4)2
_symmetry_space_group_name_H-M   'P 1'
_cell_length_a   6.48227540
_cell_length_b   6.48227500
_cell_length_c   30.00000000
_cell_angle_alpha   90.00000000
_cell_angle_beta   90.00000000
_cell_angle_gamma   59.99999695
_symmetry_Int_Tables_number   1
_chemical_formula_structural   Hf4Pd3(Se3O4)2
_chemical_formula_sum   'Hf4 Pd3 Se6 O8'
_cell_volume   1091.70877887
_cell_formula_units_Z   1
loop_
 _symmetry_equiv_pos_site_id
 _symmetry_equiv_pos_as_xyz
  1  'x, y, z'
loop_
 _atom_site_type_symbol
 _atom_site_label
 _atom_site_symmetry_multiplicity
 _atom_site_fract_x
 _atom_site_fract_y
 _atom_site_fract_z
 _atom_site_occupancy
  Hf  Hf0  1  0.00000000  0.00000000  0.58518307  1
  Hf  Hf1  1  0.99980639  0.50016653  0.58450115  1
  Hf  Hf2  1  0.50002709  0.99980639  0.58450115  1
  Hf  Hf3  1  0.50016653  0.50002709  0.58450115  1
  Pd  Pd4  1  0.66666700  0.66666700  0.40518639  1
  Pd  Pd5  1  0.33333300  0.33333300  0.40632094  1
  Pd  Pd6  1  0.00000000  0.00000000  0.40654721  1
  Se  Se7  1  0.33729945  0.99669433  0.44925910  1
  Se  Se8  1  0.66721669  0.00239951  0.36246143  1
  Se  Se9  1  0.33038380  0.66721669  0.36246143  1
  Se  Se10  1  0.00239951  0.33038380  0.36246143  1
  Se  Se11  1  0.99669433  0.66600622  0.44925910  1
  Se  Se12  1  0.66600622  0.33729945  0.44925910  1
  O  O13  1  0.33333300  0.33333300  0.61664070  1
  O  O14  1  0.33432269  0.83282407  0.61694961  1
  O  O15  1  0.66666700  0.66666700  0.55232351  1
  O  O16  1  0.66775745  0.16525393  0.55271377  1
  O  O17  1  0.16698962  0.66775745  0.55271377  1
  O  O18  1  0.16525393  0.16698962  0.55271377  1
  O  O19  1  0.83285224  0.33432269  0.61694961  1
  O  O20  1  0.83282407  0.83285224  0.61694961  1
