# generated using pymatgen
data_Pt3(W2O7)2
_symmetry_space_group_name_H-M   'P 1'
_cell_length_a   5.55399632
_cell_length_b   5.55399600
_cell_length_c   30.00000000
_cell_angle_alpha   90.00000000
_cell_angle_beta   90.00000000
_cell_angle_gamma   60.00000192
_symmetry_Int_Tables_number   1
_chemical_formula_structural   Pt3(W2O7)2
_chemical_formula_sum   'Pt3 W4 O14'
_cell_volume   801.42529405
_cell_formula_units_Z   1
loop_
 _symmetry_equiv_pos_site_id
 _symmetry_equiv_pos_as_xyz
  1  'x, y, z'
loop_
 _atom_site_type_symbol
 _atom_site_label
 _atom_site_symmetry_multiplicity
 _atom_site_fract_x
 _atom_site_fract_y
 _atom_site_fract_z
 _atom_site_occupancy
  Pt  Pt0  1  0.00000000  0.00000000  0.57200983  1
  Pt  Pt1  1  0.33333300  0.33333300  0.57203331  1
  Pt  Pt2  1  0.66666700  0.66666700  0.57237201  1
  W  W3  1  0.50028541  0.49975489  0.41381764  1
  W  W4  1  0.49975489  0.99995970  0.41381764  1
  W  W5  1  0.00000000  0.00000000  0.41377350  1
  W  W6  1  0.99995970  0.50028541  0.41381764  1
  O  O7  1  0.66671487  0.00096699  0.60246603  1
  O  O8  1  0.00096699  0.33231814  0.60246603  1
  O  O9  1  0.99850600  0.66660508  0.54211455  1
  O  O10  1  0.66668141  0.16554858  0.45557474  1
  O  O11  1  0.66660508  0.33488893  0.54211455  1
  O  O12  1  0.33488893  0.99850600  0.54211455  1
  O  O13  1  0.16651265  0.16687310  0.37187485  1
  O  O14  1  0.16687310  0.66661525  0.37187485  1
  O  O15  1  0.66661525  0.16651265  0.37187485  1
  O  O16  1  0.66666700  0.66666700  0.37192064  1
  O  O17  1  0.16554858  0.16777101  0.45557474  1
  O  O18  1  0.16777101  0.66668141  0.45557474  1
  O  O19  1  0.33231814  0.66671487  0.60246603  1
  O  O20  1  0.66666700  0.66666700  0.45575030  1
