# generated using pymatgen
data_Ni4Pt3(Se3S4)2
_symmetry_space_group_name_H-M   'P 1'
_cell_length_a   6.59754649
_cell_length_b   6.59754700
_cell_length_c   30.00000000
_cell_angle_alpha   90.00000000
_cell_angle_beta   90.00000000
_cell_angle_gamma   60.00000244
_symmetry_Int_Tables_number   1
_chemical_formula_structural   Ni4Pt3(Se3S4)2
_chemical_formula_sum   'Ni4 Pt3 Se6 S8'
_cell_volume   1130.88084701
_cell_formula_units_Z   1
loop_
 _symmetry_equiv_pos_site_id
 _symmetry_equiv_pos_as_xyz
  1  'x, y, z'
loop_
 _atom_site_type_symbol
 _atom_site_label
 _atom_site_symmetry_multiplicity
 _atom_site_fract_x
 _atom_site_fract_y
 _atom_site_fract_z
 _atom_site_occupancy
  Ni  Ni0  1  0.00000000  0.00000000  0.58669602  1
  Ni  Ni1  1  0.99944823  0.49559125  0.58738678  1
  Ni  Ni2  1  0.50496051  0.99944823  0.58738678  1
  Ni  Ni3  1  0.49559125  0.50496051  0.58738678  1
  Pt  Pt4  1  0.66666700  0.66666700  0.41032149  1
  Pt  Pt5  1  0.33333300  0.33333300  0.41236685  1
  Pt  Pt6  1  0.00000000  0.00000000  0.41256080  1
  Se  Se7  1  0.33841304  0.66660129  0.45378392  1
  Se  Se8  1  0.00434689  0.66663954  0.36904913  1
  Se  Se9  1  0.66663954  0.32901358  0.36904913  1
  Se  Se10  1  0.32901358  0.00434689  0.36904913  1
  Se  Se11  1  0.99498568  0.33841304  0.45378392  1
  Se  Se12  1  0.66660129  0.99498568  0.45378392  1
  S  S13  1  0.33333300  0.33333300  0.62690471  1
  S  S14  1  0.33148272  0.84005496  0.62695699  1
  S  S15  1  0.66666700  0.66666700  0.54769473  1
  S  S16  1  0.66496525  0.17448771  0.54786765  1
  S  S17  1  0.16054804  0.66496525  0.54786765  1
  S  S18  1  0.17448771  0.16054804  0.54786765  1
  S  S19  1  0.82846131  0.33148272  0.62695699  1
  S  S20  1  0.84005496  0.82846131  0.62695699  1
