# generated using pymatgen
data_Hf4Te6Pt3S8
_symmetry_space_group_name_H-M   'P 1'
_cell_length_a   7.02102611
_cell_length_b   7.02102600
_cell_length_c   30.00000000
_cell_angle_alpha   90.00000000
_cell_angle_beta   90.00000000
_cell_angle_gamma   60.00000050
_symmetry_Int_Tables_number   1
_chemical_formula_structural   Hf4Te6Pt3S8
_chemical_formula_sum   'Hf4 Te6 Pt3 S8'
_cell_volume   1280.71665651
_cell_formula_units_Z   1
loop_
 _symmetry_equiv_pos_site_id
 _symmetry_equiv_pos_as_xyz
  1  'x, y, z'
loop_
 _atom_site_type_symbol
 _atom_site_label
 _atom_site_symmetry_multiplicity
 _atom_site_fract_x
 _atom_site_fract_y
 _atom_site_fract_z
 _atom_site_occupancy
  Hf  Hf0  1  0.99920090  0.49897778  0.39681632  1
  Hf  Hf1  1  0.49897778  0.50182132  0.39681632  1
  Hf  Hf2  1  0.50182132  0.99920090  0.39681632  1
  Hf  Hf3  1  0.00000000  0.00000000  0.40073072  1
  Te  Te4  1  0.99280290  0.34154058  0.54752467  1
  Te  Te5  1  0.34154058  0.66565652  0.54752467  1
  Te  Te6  1  0.66565652  0.99280290  0.54752467  1
  Te  Te7  1  0.32666534  0.00581950  0.63832589  1
  Te  Te8  1  0.66751516  0.32666534  0.63832589  1
  Te  Te9  1  0.00581950  0.66751516  0.63832589  1
  Pt  Pt10  1  0.00000000  0.00000000  0.59090663  1
  Pt  Pt11  1  0.66666700  0.66666700  0.59513576  1
  Pt  Pt12  1  0.33333300  0.33333300  0.59137526  1
  S  S13  1  0.16600058  0.16534237  0.34657675  1
  S  S14  1  0.16534237  0.66865805  0.34657675  1
  S  S15  1  0.66865805  0.16600058  0.34657675  1
  S  S16  1  0.66666700  0.66666700  0.34552980  1
  S  S17  1  0.17436765  0.16013023  0.45066533  1
  S  S18  1  0.16013023  0.66550312  0.45066533  1
  S  S19  1  0.66550312  0.17436765  0.45066533  1
  S  S20  1  0.66666700  0.66666700  0.45006593  1
