# generated using pymatgen
data_Hf4Ge7(Se4O7)2
_symmetry_space_group_name_H-M   'P 1'
_cell_length_a   7.60790437
_cell_length_b   7.60790458
_cell_length_c   30.00000000
_cell_angle_alpha   90.00000000
_cell_angle_beta   90.00000000
_cell_angle_gamma   60.00000130
_symmetry_Int_Tables_number   1
_chemical_formula_structural   Hf4Ge7(Se4O7)2
_chemical_formula_sum   'Hf4 Ge7 Se8 O14'
_cell_volume   1503.77199947
_cell_formula_units_Z   1
loop_
 _symmetry_equiv_pos_site_id
 _symmetry_equiv_pos_as_xyz
  1  'x, y, z'
loop_
 _atom_site_type_symbol
 _atom_site_label
 _atom_site_symmetry_multiplicity
 _atom_site_fract_x
 _atom_site_fract_y
 _atom_site_fract_z
 _atom_site_occupancy
  Hf  Hf0  1  0.00000000  0.00000000  0.39656451  1
  Hf  Hf1  1  0.49960208  0.00004915  0.39649373  1
  Hf  Hf2  1  0.50034878  0.49960208  0.39649373  1
  Hf  Hf3  1  0.00004915  0.50034878  0.39649373  1
  Ge  Ge4  1  0.85707047  0.42861033  0.58666140  1
  Ge  Ge5  1  0.00000000  0.00000000  0.58727948  1
  Ge  Ge6  1  0.57140065  0.28565651  0.58672519  1
  Ge  Ge7  1  0.42861033  0.71431920  0.58666140  1
  Ge  Ge8  1  0.28565651  0.14294284  0.58672519  1
  Ge  Ge9  1  0.14294284  0.57140065  0.58672519  1
  Ge  Ge10  1  0.71431920  0.85707047  0.58666140  1
  Se  Se11  1  0.33333300  0.33333300  0.44815794  1
  Se  Se12  1  0.66666700  0.66666700  0.34474762  1
  Se  Se13  1  0.66670616  0.16652044  0.34482915  1
  Se  Se14  1  0.16677440  0.66670616  0.34482915  1
  Se  Se15  1  0.16652044  0.16677440  0.34482915  1
  Se  Se16  1  0.33373493  0.83274598  0.44794586  1
  Se  Se17  1  0.83351809  0.33373493  0.44794586  1
  Se  Se18  1  0.83274598  0.83351809  0.44794586  1
  O  O19  1  0.76131919  0.04753724  0.62018574  1
  O  O20  1  0.90463819  0.61897360  0.61994175  1
  O  O21  1  0.04753724  0.19114357  0.62018574  1
  O  O22  1  0.33333300  0.33333300  0.61996454  1
  O  O23  1  0.19114357  0.76131919  0.62018574  1
  O  O24  1  0.09509009  0.38094417  0.55338836  1
  O  O25  1  0.95301359  0.80975135  0.55371498  1
  O  O26  1  0.80975135  0.23723506  0.55371498  1
  O  O27  1  0.66666700  0.66666700  0.55326443  1
  O  O28  1  0.52396575  0.09509009  0.55338836  1
  O  O29  1  0.38094417  0.52396575  0.55338836  1
  O  O30  1  0.23723506  0.95301359  0.55371498  1
  O  O31  1  0.61897360  0.47638821  0.61994175  1
  O  O32  1  0.47638821  0.90463819  0.61994175  1
