# generated using pymatgen
data_Ni4Te6Pt3S8
_symmetry_space_group_name_H-M   'P 1'
_cell_length_a   6.83154700
_cell_length_b   6.83154703
_cell_length_c   30.00000000
_cell_angle_alpha   90.00000000
_cell_angle_beta   90.00000000
_cell_angle_gamma   59.99999532
_symmetry_Int_Tables_number   1
_chemical_formula_structural   Ni4Te6Pt3S8
_chemical_formula_sum   'Ni4 Te6 Pt3 S8'
_cell_volume   1212.52301086
_cell_formula_units_Z   1
loop_
 _symmetry_equiv_pos_site_id
 _symmetry_equiv_pos_as_xyz
  1  'x, y, z'
loop_
 _atom_site_type_symbol
 _atom_site_label
 _atom_site_symmetry_multiplicity
 _atom_site_fract_x
 _atom_site_fract_y
 _atom_site_fract_z
 _atom_site_occupancy
  Ni  Ni0  1  0.00000000  0.00000000  0.58346673  1
  Ni  Ni1  1  0.99913464  0.50618307  0.58464701  1
  Ni  Ni2  1  0.49468228  0.99913464  0.58464701  1
  Ni  Ni3  1  0.50618307  0.49468228  0.58464701  1
  Te  Te4  1  0.34461037  0.98934656  0.45998936  1
  Te  Te5  1  0.66804543  0.01023646  0.36521492  1
  Te  Te6  1  0.32171812  0.66804543  0.36521492  1
  Te  Te7  1  0.01023646  0.32171812  0.36521492  1
  Te  Te8  1  0.66604307  0.34461037  0.45998936  1
  Te  Te9  1  0.98934656  0.66604307  0.45998936  1
  Pt  Pt10  1  0.00000000  0.00000000  0.41569103  1
  Pt  Pt11  1  0.33333300  0.33333300  0.41457975  1
  Pt  Pt12  1  0.66666700  0.66666700  0.40885997  1
  S  S13  1  0.33281598  0.82638852  0.62264888  1
  S  S14  1  0.84079450  0.33281598  0.62264888  1
  S  S15  1  0.66666700  0.66666700  0.54623858  1
  S  S16  1  0.66410036  0.16121442  0.54660042  1
  S  S17  1  0.17468622  0.66410036  0.54660042  1
  S  S18  1  0.16121442  0.17468622  0.54660042  1
  S  S19  1  0.33333300  0.33333300  0.62293516  1
  S  S20  1  0.82638852  0.84079450  0.62264888  1
