# generated using pymatgen
data_HfTiTe4
_symmetry_space_group_name_H-M   'P 1'
_cell_length_a   3.82323557
_cell_length_b   3.82323500
_cell_length_c   30.00000000
_cell_angle_alpha   90.00000000
_cell_angle_beta   90.00000000
_cell_angle_gamma   59.99999625
_symmetry_Int_Tables_number   1
_chemical_formula_structural   HfTiTe4
_chemical_formula_sum   'Hf1 Ti1 Te4'
_cell_volume   379.76411179
_cell_formula_units_Z   1
loop_
 _symmetry_equiv_pos_site_id
 _symmetry_equiv_pos_as_xyz
  1  'x, y, z'
loop_
 _atom_site_type_symbol
 _atom_site_label
 _atom_site_symmetry_multiplicity
 _atom_site_fract_x
 _atom_site_fract_y
 _atom_site_fract_z
 _atom_site_occupancy
  Hf  Hf0  1  0.00000000  0.00000000  0.62576615  1
  Ti  Ti1  1  0.00000000  0.00000000  0.37626250  1
  Te  Te2  1  0.33333300  0.33333300  0.56402968  1
  Te  Te3  1  0.33333300  0.33333300  0.68802619  1
  Te  Te4  1  0.33333300  0.33333300  0.31757380  1
  Te  Te5  1  0.33333300  0.33333300  0.43422768  1
