# generated using pymatgen
data_Ni3Mo4(Se3O4)2
_symmetry_space_group_name_H-M   'P 1'
_cell_length_a   5.88594900
_cell_length_b   5.88594980
_cell_length_c   30.00000000
_cell_angle_alpha   90.00000000
_cell_angle_beta   90.00000000
_cell_angle_gamma   59.99999890
_symmetry_Int_Tables_number   1
_chemical_formula_structural   Ni3Mo4(Se3O4)2
_chemical_formula_sum   'Ni3 Mo4 Se6 O8'
_cell_volume   900.08791457
_cell_formula_units_Z   1
loop_
 _symmetry_equiv_pos_site_id
 _symmetry_equiv_pos_as_xyz
  1  'x, y, z'
loop_
 _atom_site_type_symbol
 _atom_site_label
 _atom_site_symmetry_multiplicity
 _atom_site_fract_x
 _atom_site_fract_y
 _atom_site_fract_z
 _atom_site_occupancy
  Ni  Ni0  1  0.00000000  0.00000000  0.58978910  1
  Ni  Ni1  1  0.33333300  0.33333300  0.58988054  1
  Ni  Ni2  1  0.66666700  0.66666700  0.59131912  1
  Mo  Mo3  1  0.49982544  0.50025508  0.40785035  1
  Mo  Mo4  1  0.50025508  0.99991948  0.40785035  1
  Mo  Mo5  1  0.00000000  0.00000000  0.40784281  1
  Mo  Mo6  1  0.99991948  0.49982544  0.40785035  1
  Se  Se7  1  0.66682062  0.32983799  0.63458072  1
  Se  Se8  1  0.00334139  0.66682062  0.63458072  1
  Se  Se9  1  0.66646610  0.99540446  0.54626897  1
  Se  Se10  1  0.33812944  0.66646610  0.54626897  1
  Se  Se11  1  0.99540446  0.33812944  0.54626897  1
  Se  Se12  1  0.32983799  0.00334139  0.63458072  1
  O  O13  1  0.66666475  0.16780201  0.44808967  1
  O  O14  1  0.16678599  0.16649180  0.36782684  1
  O  O15  1  0.16649180  0.66672320  0.36782684  1
  O  O16  1  0.66672320  0.16678599  0.36782684  1
  O  O17  1  0.66666700  0.66666700  0.36785076  1
  O  O18  1  0.16780201  0.16553425  0.44808967  1
  O  O19  1  0.16553425  0.66666475  0.44808967  1
  O  O20  1  0.66666700  0.66666700  0.44820404  1
