# generated using pymatgen
data_Ti3Ni4(Te3S4)2
_symmetry_space_group_name_H-M   'P 1'
_cell_length_a   6.58987821
_cell_length_b   6.58987800
_cell_length_c   30.00000000
_cell_angle_alpha   90.00000000
_cell_angle_beta   90.00000000
_cell_angle_gamma   60.00000106
_symmetry_Int_Tables_number   1
_chemical_formula_structural   Ti3Ni4(Te3S4)2
_chemical_formula_sum   'Ti3 Ni4 Te6 S8'
_cell_volume   1128.25340777
_cell_formula_units_Z   1
loop_
 _symmetry_equiv_pos_site_id
 _symmetry_equiv_pos_as_xyz
  1  'x, y, z'
loop_
 _atom_site_type_symbol
 _atom_site_label
 _atom_site_symmetry_multiplicity
 _atom_site_fract_x
 _atom_site_fract_y
 _atom_site_fract_z
 _atom_site_occupancy
  Ti  Ti0  1  0.66666700  0.66666700  0.39187151  1
  Ti  Ti1  1  0.33333300  0.33333300  0.39561113  1
  Ti  Ti2  1  0.00000000  0.00000000  0.39773623  1
  Ni  Ni3  1  0.00000000  0.00000000  0.58662191  1
  Ni  Ni4  1  0.99909465  0.50571378  0.58780624  1
  Ni  Ni5  1  0.49519157  0.99909465  0.58780624  1
  Ni  Ni6  1  0.50571378  0.49519157  0.58780624  1
  Te  Te7  1  0.33766971  0.99600370  0.45280104  1
  Te  Te8  1  0.00367723  0.66742304  0.33730036  1
  Te  Te9  1  0.66742304  0.32889973  0.33730036  1
  Te  Te10  1  0.32889973  0.00367723  0.33730036  1
  Te  Te11  1  0.99600370  0.66632659  0.45280104  1
  Te  Te12  1  0.66632659  0.33766971  0.45280104  1
  S  S13  1  0.33333300  0.33333300  0.62750581  1
  S  S14  1  0.33021549  0.82716019  0.62743647  1
  S  S15  1  0.66666700  0.66666700  0.54809685  1
  S  S16  1  0.66421463  0.16321980  0.54820641  1
  S  S17  1  0.17256657  0.66421463  0.54820641  1
  S  S18  1  0.16321980  0.17256657  0.54820641  1
  S  S19  1  0.84262332  0.33021549  0.62743647  1
  S  S20  1  0.82716019  0.84262332  0.62743647  1
