# generated using pymatgen
data_Te6Pd3(WSe2)4
_symmetry_space_group_name_H-M   'P 1'
_cell_length_a   6.79831073
_cell_length_b   6.79831073
_cell_length_c   30.00000000
_cell_angle_alpha   90.00000000
_cell_angle_beta   90.00000000
_cell_angle_gamma   59.99999294
_symmetry_Int_Tables_number   1
_chemical_formula_structural   Te6Pd3(WSe2)4
_chemical_formula_sum   'Te6 Pd3 W4 Se8'
_cell_volume   1200.75354324
_cell_formula_units_Z   1
loop_
 _symmetry_equiv_pos_site_id
 _symmetry_equiv_pos_as_xyz
  1  'x, y, z'
loop_
 _atom_site_type_symbol
 _atom_site_label
 _atom_site_symmetry_multiplicity
 _atom_site_fract_x
 _atom_site_fract_y
 _atom_site_fract_z
 _atom_site_occupancy
  Te  Te0  1  0.34419252  0.98962201  0.55375669  1
  Te  Te1  1  0.66618547  0.34419252  0.55375669  1
  Te  Te2  1  0.98962201  0.66618547  0.55375669  1
  Te  Te3  1  0.32428990  0.66701312  0.64952930  1
  Te  Te4  1  0.66701312  0.00869698  0.64952930  1
  Te  Te5  1  0.00869698  0.32428990  0.64952930  1
  Pd  Pd6  1  0.00000000  0.00000000  0.59982352  1
  Pd  Pd7  1  0.33333300  0.33333300  0.60008503  1
  Pd  Pd8  1  0.66666700  0.66666700  0.60435653  1
  W  W9  1  0.50117306  0.49909205  0.38773084  1
  W  W10  1  0.49909205  0.99973489  0.38773084  1
  W  W11  1  0.99973489  0.50117306  0.38773084  1
  W  W12  1  0.00000000  0.00000000  0.38778480  1
  Se  Se13  1  0.16575176  0.16748186  0.33297033  1
  Se  Se14  1  0.16748186  0.66676737  0.33297033  1
  Se  Se15  1  0.66676737  0.16575176  0.33297033  1
  Se  Se16  1  0.66666700  0.66666700  0.33293776  1
  Se  Se17  1  0.16476145  0.16877965  0.44241154  1
  Se  Se18  1  0.16877965  0.66645990  0.44241154  1
  Se  Se19  1  0.66645990  0.16476145  0.44241154  1
  Se  Se20  1  0.66666700  0.66666700  0.44269124  1
