# generated using pymatgen
data_Hf3(Cr2S7)2
_symmetry_space_group_name_H-M   'P 1'
_cell_length_a   6.20765035
_cell_length_b   6.20765035
_cell_length_c   30.00000000
_cell_angle_alpha   90.00000000
_cell_angle_beta   90.00000000
_cell_angle_gamma   59.99999629
_symmetry_Int_Tables_number   1
_chemical_formula_structural   Hf3(Cr2S7)2
_chemical_formula_sum   'Hf3 Cr4 S14'
_cell_volume   1001.16662610
_cell_formula_units_Z   1
loop_
 _symmetry_equiv_pos_site_id
 _symmetry_equiv_pos_as_xyz
  1  'x, y, z'
loop_
 _atom_site_type_symbol
 _atom_site_label
 _atom_site_symmetry_multiplicity
 _atom_site_fract_x
 _atom_site_fract_y
 _atom_site_fract_z
 _atom_site_occupancy
  Hf  Hf0  1  0.00000000  0.00000000  0.60229840  1
  Hf  Hf1  1  0.33333300  0.33333300  0.60245345  1
  Hf  Hf2  1  0.66666700  0.66666700  0.60289473  1
  Cr  Cr3  1  0.50067744  0.49949140  0.39560447  1
  Cr  Cr4  1  0.49949140  0.99983116  0.39560447  1
  Cr  Cr5  1  0.00000000  0.00000000  0.39555065  1
  Cr  Cr6  1  0.99983116  0.50067744  0.39560447  1
  S  S7  1  0.66679302  0.00058037  0.65148852  1
  S  S8  1  0.00058037  0.33262662  0.65148852  1
  S  S9  1  0.99919826  0.66652300  0.55373261  1
  S  S10  1  0.66666649  0.16543115  0.44375206  1
  S  S11  1  0.66652300  0.33427874  0.55373261  1
  S  S12  1  0.33427874  0.99919826  0.55373261  1
  S  S13  1  0.16625450  0.16718155  0.34726646  1
  S  S14  1  0.16718155  0.66656495  0.34726646  1
  S  S15  1  0.66656495  0.16625450  0.34726646  1
  S  S16  1  0.66666700  0.66666700  0.34730095  1
  S  S17  1  0.16543115  0.16790335  0.44375206  1
  S  S18  1  0.16790335  0.66666649  0.44375206  1
  S  S19  1  0.33262662  0.66679302  0.65148852  1
  S  S20  1  0.66666700  0.66666700  0.44400247  1
