# generated using pymatgen
data_Ge7Te6Pt3O14
_symmetry_space_group_name_H-M   'P 1'
_cell_length_a   7.31439770
_cell_length_b   7.31439764
_cell_length_c   30.00000000
_cell_angle_alpha   90.00000000
_cell_angle_beta   90.00000000
_cell_angle_gamma   59.99999884
_symmetry_Int_Tables_number   1
_chemical_formula_structural   Ge7Te6Pt3O14
_chemical_formula_sum   'Ge7 Te6 Pt3 O14'
_cell_volume   1389.98149470
_cell_formula_units_Z   1
loop_
 _symmetry_equiv_pos_site_id
 _symmetry_equiv_pos_as_xyz
  1  'x, y, z'
loop_
 _atom_site_type_symbol
 _atom_site_label
 _atom_site_symmetry_multiplicity
 _atom_site_fract_x
 _atom_site_fract_y
 _atom_site_fract_z
 _atom_site_occupancy
  Ge  Ge0  1  0.00000000  0.00000000  0.58800293  1
  Ge  Ge1  1  0.28566180  0.14296175  0.58822856  1
  Ge  Ge2  1  0.14296175  0.57137645  0.58822856  1
  Ge  Ge3  1  0.57137645  0.28566180  0.58822856  1
  Ge  Ge4  1  0.42855180  0.71439705  0.58887038  1
  Ge  Ge5  1  0.85705116  0.42855180  0.58887038  1
  Ge  Ge6  1  0.71439705  0.85705116  0.58887038  1
  Te  Te7  1  0.33207453  0.00072590  0.44421922  1
  Te  Te8  1  0.66637706  0.99953643  0.35844236  1
  Te  Te9  1  0.33408651  0.66637706  0.35844236  1
  Te  Te10  1  0.99953643  0.33408651  0.35844236  1
  Te  Te11  1  0.66719957  0.33207453  0.44421922  1
  Te  Te12  1  0.00072590  0.66719957  0.44421922  1
  Pt  Pt13  1  0.00000000  0.00000000  0.40131774  1
  Pt  Pt14  1  0.66666700  0.66666700  0.40178369  1
  Pt  Pt15  1  0.33333300  0.33333300  0.40148205  1
  O  O16  1  0.04711309  0.19129647  0.55348546  1
  O  O17  1  0.33333300  0.33333300  0.55336444  1
  O  O18  1  0.19129647  0.76159044  0.55348546  1
  O  O19  1  0.61894324  0.47712347  0.55393920  1
  O  O20  1  0.90393329  0.61894324  0.55393920  1
  O  O21  1  0.76159044  0.04711309  0.55348546  1
  O  O22  1  0.09606833  0.38060188  0.62311903  1
  O  O23  1  0.66666700  0.66666700  0.62366388  1
  O  O24  1  0.80956985  0.23719384  0.62305422  1
  O  O25  1  0.38060188  0.52332978  0.62311903  1
  O  O26  1  0.52332978  0.09606833  0.62311903  1
  O  O27  1  0.47712347  0.90393329  0.55393920  1
  O  O28  1  0.95323631  0.80956985  0.62305422  1
  O  O29  1  0.23719384  0.95323631  0.62305422  1
