# generated using pymatgen
data_Mo3W4(S3O4)2
_symmetry_space_group_name_H-M   'P 1'
_cell_length_a   5.58974374
_cell_length_b   5.58974400
_cell_length_c   30.00000000
_cell_angle_alpha   90.00000000
_cell_angle_beta   90.00000000
_cell_angle_gamma   59.99999844
_symmetry_Int_Tables_number   1
_chemical_formula_structural   Mo3W4(S3O4)2
_chemical_formula_sum   'Mo3 W4 S6 O8'
_cell_volume   811.77504420
_cell_formula_units_Z   1
loop_
 _symmetry_equiv_pos_site_id
 _symmetry_equiv_pos_as_xyz
  1  'x, y, z'
loop_
 _atom_site_type_symbol
 _atom_site_label
 _atom_site_symmetry_multiplicity
 _atom_site_fract_x
 _atom_site_fract_y
 _atom_site_fract_z
 _atom_site_occupancy
  Mo  Mo0  1  0.00000000  0.00000000  0.60143762  1
  Mo  Mo1  1  0.33333300  0.33333300  0.60144377  1
  Mo  Mo2  1  0.66666700  0.66666700  0.60166042  1
  W  W3  1  0.50012810  0.49987956  0.40709405  1
  W  W4  1  0.49987956  0.99999235  0.40709405  1
  W  W5  1  0.00000000  0.00000000  0.40708205  1
  W  W6  1  0.99999235  0.50012810  0.40709405  1
  S  S7  1  0.66667974  0.33287291  0.65311713  1
  S  S8  1  0.00044736  0.66667974  0.65311713  1
  S  S9  1  0.99895252  0.66664439  0.55005990  1
  S  S10  1  0.66664439  0.33440310  0.55005990  1
  S  S11  1  0.33440310  0.99895252  0.55005990  1
  S  S12  1  0.33287291  0.00044736  0.65311713  1
  O  O13  1  0.66664178  0.16610129  0.44876069  1
  O  O14  1  0.16658672  0.16672549  0.36535496  1
  O  O15  1  0.16672549  0.66668879  0.36535496  1
  O  O16  1  0.66668879  0.16658672  0.36535496  1
  O  O17  1  0.66666700  0.66666700  0.36538058  1
  O  O18  1  0.16610129  0.16725793  0.44876069  1
  O  O19  1  0.16725793  0.66664178  0.44876069  1
  O  O20  1  0.66666700  0.66666700  0.44885635  1
