# generated using pymatgen
data_Hf4W7(S4O7)2
_symmetry_space_group_name_H-M   'P 1'
_cell_length_a   7.39798598
_cell_length_b   7.39798523
_cell_length_c   30.00000000
_cell_angle_alpha   90.00000000
_cell_angle_beta   90.00000000
_cell_angle_gamma   60.00000024
_symmetry_Int_Tables_number   1
_chemical_formula_structural   Hf4W7(S4O7)2
_chemical_formula_sum   'Hf4 W7 S8 O14'
_cell_volume   1421.93207503
_cell_formula_units_Z   1
loop_
 _symmetry_equiv_pos_site_id
 _symmetry_equiv_pos_as_xyz
  1  'x, y, z'
loop_
 _atom_site_type_symbol
 _atom_site_label
 _atom_site_symmetry_multiplicity
 _atom_site_fract_x
 _atom_site_fract_y
 _atom_site_fract_z
 _atom_site_occupancy
  Hf  Hf0  1  0.00000000  0.00000000  0.59575467  1
  Hf  Hf1  1  0.99993774  0.49984646  0.59574036  1
  Hf  Hf2  1  0.50021580  0.99993774  0.59574036  1
  Hf  Hf3  1  0.49984646  0.50021580  0.59574036  1
  W  W4  1  0.71433189  0.85704061  0.40662695  1
  W  W5  1  0.85704061  0.42862751  0.40662695  1
  W  W6  1  0.57143740  0.28562234  0.40664783  1
  W  W7  1  0.14294026  0.57143740  0.40664783  1
  W  W8  1  0.28562234  0.14294026  0.40664783  1
  W  W9  1  0.00000000  0.00000000  0.40639462  1
  W  W10  1  0.42862751  0.71433189  0.40662695  1
  S  S11  1  0.83324000  0.33336173  0.64290572  1
  S  S12  1  0.33333300  0.33333300  0.64290035  1
  S  S13  1  0.33336173  0.83339727  0.64290572  1
  S  S14  1  0.66666700  0.66666700  0.54868739  1
  S  S15  1  0.66642058  0.16717773  0.54890980  1
  S  S16  1  0.16640269  0.66642058  0.54890980  1
  S  S17  1  0.16717773  0.16640269  0.54890980  1
  S  S18  1  0.83339727  0.83324000  0.64290572  1
  O  O19  1  0.47601044  0.90499473  0.44835455  1
  O  O20  1  0.61899483  0.47601044  0.44835455  1
  O  O21  1  0.19035290  0.76259337  0.44814366  1
  O  O22  1  0.33333300  0.33333300  0.44842613  1
  O  O23  1  0.04705373  0.19035290  0.44814366  1
  O  O24  1  0.76156751  0.04760666  0.36481919  1
  O  O25  1  0.19082584  0.76156751  0.36481919  1
  O  O26  1  0.47619778  0.90481955  0.36493306  1
  O  O27  1  0.61898268  0.47619778  0.36493306  1
  O  O28  1  0.33333300  0.33333300  0.36495848  1
  O  O29  1  0.04760666  0.19082584  0.36481919  1
  O  O30  1  0.90499473  0.61899483  0.44835455  1
  O  O31  1  0.90481955  0.61898268  0.36493306  1
  O  O32  1  0.76259337  0.04705373  0.44814366  1
