# generated using pymatgen
data_Sn3Ge4(S3O4)2
_symmetry_space_group_name_H-M   'P 1'
_cell_length_a   6.10085700
_cell_length_b   6.10085712
_cell_length_c   30.00000000
_cell_angle_alpha   90.00000000
_cell_angle_beta   90.00000000
_cell_angle_gamma   59.99999524
_symmetry_Int_Tables_number   1
_chemical_formula_structural   Sn3Ge4(S3O4)2
_chemical_formula_sum   'Sn3 Ge4 S6 O8'
_cell_volume   967.01578971
_cell_formula_units_Z   1
loop_
 _symmetry_equiv_pos_site_id
 _symmetry_equiv_pos_as_xyz
  1  'x, y, z'
loop_
 _atom_site_type_symbol
 _atom_site_label
 _atom_site_symmetry_multiplicity
 _atom_site_fract_x
 _atom_site_fract_y
 _atom_site_fract_z
 _atom_site_occupancy
  Sn  Sn0  1  0.66666700  0.66666700  0.39851803  1
  Sn  Sn1  1  0.33333300  0.33333300  0.39906714  1
  Sn  Sn2  1  0.00000000  0.00000000  0.39904945  1
  Ge  Ge3  1  0.00000000  0.00000000  0.58626228  1
  Ge  Ge4  1  0.99994187  0.50009114  0.58613999  1
  Ge  Ge5  1  0.49996699  0.99994187  0.58613999  1
  Ge  Ge6  1  0.50009114  0.49996699  0.58613999  1
  S  S7  1  0.33471846  0.99862873  0.45001286  1
  S  S8  1  0.66665648  0.00104086  0.34765403  1
  S  S9  1  0.33230266  0.66665648  0.34765403  1
  S  S10  1  0.00104086  0.33230266  0.34765403  1
  S  S11  1  0.99862873  0.66665281  0.45001286  1
  S  S12  1  0.66665281  0.33471846  0.45001286  1
  O  O13  1  0.33333300  0.33333300  0.61727809  1
  O  O14  1  0.33359181  0.83367192  0.61732914  1
  O  O15  1  0.66666700  0.66666700  0.55487897  1
  O  O16  1  0.66682889  0.16574637  0.55506100  1
  O  O17  1  0.16742574  0.66682889  0.55506100  1
  O  O18  1  0.16574637  0.16742574  0.55506100  1
  O  O19  1  0.83273527  0.33359181  0.61732914  1
  O  O20  1  0.83367192  0.83273527  0.61732914  1
