# generated using pymatgen
data_Hf4Ni7(Te4O7)2
_symmetry_space_group_name_H-M   'P 1'
_cell_length_a   7.66084802
_cell_length_b   7.66084800
_cell_length_c   30.00000000
_cell_angle_alpha   90.00000000
_cell_angle_beta   90.00000000
_cell_angle_gamma   60.00000007
_symmetry_Int_Tables_number   1
_chemical_formula_structural   Hf4Ni7(Te4O7)2
_chemical_formula_sum   'Hf4 Ni7 Te8 O14'
_cell_volume   1524.77435360
_cell_formula_units_Z   1
loop_
 _symmetry_equiv_pos_site_id
 _symmetry_equiv_pos_as_xyz
  1  'x, y, z'
loop_
 _atom_site_type_symbol
 _atom_site_label
 _atom_site_symmetry_multiplicity
 _atom_site_fract_x
 _atom_site_fract_y
 _atom_site_fract_z
 _atom_site_occupancy
  Hf  Hf0  1  0.99999919  0.00000102  0.39819359  1
  Hf  Hf1  1  0.49985081  0.00168710  0.39795284  1
  Hf  Hf2  1  0.49846241  0.49985244  0.39795306  1
  Hf  Hf3  1  0.00168607  0.49846345  0.39795298  1
  Ni  Ni4  1  0.85783902  0.71479979  0.58026587  1
  Ni  Ni5  1  0.00000069  0.00000094  0.58005500  1
  Ni  Ni6  1  0.71479897  0.42735985  0.58026561  1
  Ni  Ni7  1  0.28606867  0.57132520  0.58038882  1
  Ni  Ni8  1  0.57132794  0.14260620  0.58038888  1
  Ni  Ni9  1  0.14260863  0.28606422  0.58038906  1
  Ni  Ni10  1  0.42735938  0.85783963  0.58026579  1
  Te  Te11  1  0.16636667  0.66736845  0.45939665  1
  Te  Te12  1  0.66666600  0.66666740  0.33584472  1
  Te  Te13  1  0.66681918  0.16714814  0.33543116  1
  Te  Te14  1  0.16603250  0.66682034  0.33543128  1
  Te  Te15  1  0.16714700  0.16603376  0.33543108  1
  Te  Te16  1  0.16626524  0.16636787  0.45939657  1
  Te  Te17  1  0.66666598  0.66666807  0.45854284  1
  Te  Te18  1  0.66736651  0.16626639  0.45939667  1
  O  O19  1  0.90464198  0.47610357  0.61059125  1
  O  O20  1  0.61925193  0.90464072  0.61059136  1
  O  O21  1  0.04771683  0.76349167  0.61092202  1
  O  O22  1  0.33333445  0.33333320  0.61101072  1
  O  O23  1  0.18879375  0.04771510  0.61092221  1
  O  O24  1  0.80934582  0.95247568  0.54910724  1
  O  O25  1  0.38044153  0.09613575  0.54931521  1
  O  O26  1  0.66666681  0.66666657  0.54878852  1
  O  O27  1  0.23818121  0.80934538  0.54910711  1
  O  O28  1  0.52342160  0.38044250  0.54931529  1
  O  O29  1  0.09613636  0.52342171  0.54931541  1
  O  O30  1  0.95247467  0.23817776  0.54910707  1
  O  O31  1  0.47610662  0.61925212  0.61059157  1
  O  O32  1  0.76349156  0.18879402  0.61092257  1
