# generated using pymatgen
data_Ti4Ni3(S3O4)2
_symmetry_space_group_name_H-M   'P 1'
_cell_length_a   5.89024542
_cell_length_b   5.89024600
_cell_length_c   30.00000000
_cell_angle_alpha   90.00000000
_cell_angle_beta   90.00000000
_cell_angle_gamma   59.99999674
_symmetry_Int_Tables_number   1
_chemical_formula_structural   Ti4Ni3(S3O4)2
_chemical_formula_sum   'Ti4 Ni3 S6 O8'
_cell_volume   901.40236953
_cell_formula_units_Z   1
loop_
 _symmetry_equiv_pos_site_id
 _symmetry_equiv_pos_as_xyz
  1  'x, y, z'
loop_
 _atom_site_type_symbol
 _atom_site_label
 _atom_site_symmetry_multiplicity
 _atom_site_fract_x
 _atom_site_fract_y
 _atom_site_fract_z
 _atom_site_occupancy
  Ti  Ti0  1  0.00273828  0.49840484  0.41365611  1
  Ti  Ti1  1  0.49840484  0.49885688  0.41365611  1
  Ti  Ti2  1  0.49885688  0.00273828  0.41365611  1
  Ti  Ti3  1  0.00000000  0.00000000  0.42130679  1
  Ni  Ni4  1  0.00000000  0.00000000  0.58892013  1
  Ni  Ni5  1  0.66666700  0.66666700  0.58891850  1
  Ni  Ni6  1  0.33333300  0.33333300  0.58926443  1
  S  S7  1  0.00112926  0.66540908  0.55118932  1
  S  S8  1  0.33327208  0.66728970  0.62713749  1
  S  S9  1  0.66728970  0.99943823  0.62713749  1
  S  S10  1  0.99943823  0.33327208  0.62713749  1
  S  S11  1  0.33346165  0.00112926  0.55118932  1
  S  S12  1  0.66540908  0.33346165  0.55118932  1
  O  O13  1  0.83075508  0.83191260  0.44929648  1
  O  O14  1  0.16486274  0.16479157  0.38245642  1
  O  O15  1  0.16479157  0.67034669  0.38245642  1
  O  O16  1  0.67034669  0.16486274  0.38245642  1
  O  O17  1  0.66666700  0.66666700  0.38139050  1
  O  O18  1  0.33733131  0.83075508  0.44929648  1
  O  O19  1  0.33333300  0.33333300  0.44814920  1
  O  O20  1  0.83191260  0.33733131  0.44929648  1
