# generated using pymatgen
data_Hf3Ni4(Te3S4)2
_symmetry_space_group_name_H-M   'P 1'
_cell_length_a   6.73931100
_cell_length_b   6.73931029
_cell_length_c   30.00000000
_cell_angle_alpha   90.00000000
_cell_angle_beta   90.00000000
_cell_angle_gamma   60.00000143
_symmetry_Int_Tables_number   1
_chemical_formula_structural   Hf3Ni4(Te3S4)2
_chemical_formula_sum   'Hf3 Ni4 Te6 S8'
_cell_volume   1180.00227212
_cell_formula_units_Z   1
loop_
 _symmetry_equiv_pos_site_id
 _symmetry_equiv_pos_as_xyz
  1  'x, y, z'
loop_
 _atom_site_type_symbol
 _atom_site_label
 _atom_site_symmetry_multiplicity
 _atom_site_fract_x
 _atom_site_fract_y
 _atom_site_fract_z
 _atom_site_occupancy
  Hf  Hf0  1  0.66666700  0.66666700  0.38501195  1
  Hf  Hf1  1  0.33333300  0.33333300  0.38965189  1
  Hf  Hf2  1  0.00000000  0.00000000  0.39262128  1
  Ni  Ni3  1  0.00000000  0.00000000  0.59032915  1
  Ni  Ni4  1  0.99950914  0.49667488  0.59084540  1
  Ni  Ni5  1  0.50381598  0.99950914  0.59084540  1
  Ni  Ni6  1  0.49667488  0.50381598  0.59084540  1
  Te  Te7  1  0.99575369  0.33990332  0.45015148  1
  Te  Te8  1  0.66917283  0.00423556  0.32751979  1
  Te  Te9  1  0.32659161  0.66917283  0.32751979  1
  Te  Te10  1  0.00423556  0.32659161  0.32751979  1
  Te  Te11  1  0.66434299  0.99575369  0.45015148  1
  Te  Te12  1  0.33990332  0.66434299  0.45015148  1
  S  S13  1  0.33333300  0.33333300  0.62938320  1
  S  S14  1  0.33210189  0.83885180  0.62938108  1
  S  S15  1  0.66666700  0.66666700  0.55229724  1
  S  S16  1  0.66524742  0.17177192  0.55248301  1
  S  S17  1  0.16298166  0.66524742  0.55248301  1
  S  S18  1  0.17177192  0.16298166  0.55248301  1
  S  S19  1  0.82904531  0.33210189  0.62938108  1
  S  S20  1  0.83885180  0.82904531  0.62938108  1
