# generated using pymatgen
data_GePt(SeS)2
_symmetry_space_group_name_H-M   'P 1'
_cell_length_a   6.22544653
_cell_length_b   6.22544653
_cell_length_c   30.00000000
_cell_angle_alpha   90.00000000
_cell_angle_beta   90.00000000
_cell_angle_gamma   59.99999435
_symmetry_Int_Tables_number   1
_chemical_formula_structural   GePt(SeS)2
_chemical_formula_sum   'Ge3 Pt3 Se6 S6'
_cell_volume   1006.91515312
_cell_formula_units_Z   3
loop_
 _symmetry_equiv_pos_site_id
 _symmetry_equiv_pos_as_xyz
  1  'x, y, z'
loop_
 _atom_site_type_symbol
 _atom_site_label
 _atom_site_symmetry_multiplicity
 _atom_site_fract_x
 _atom_site_fract_y
 _atom_site_fract_z
 _atom_site_occupancy
  Ge  Ge0  1  0.00000000  0.00000000  0.60856531  1
  Ge  Ge1  1  0.33333300  0.33333300  0.60856531  1
  Ge  Ge2  1  0.66666700  0.66666700  0.60856531  1
  Pt  Pt3  1  0.66666700  0.66666700  0.39441423  1
  Pt  Pt4  1  0.33333300  0.33333300  0.39441423  1
  Pt  Pt5  1  0.00000000  0.00000000  0.39441423  1
  Se  Se6  1  0.33333300  0.66666700  0.44096717  1
  Se  Se7  1  0.00000000  0.66666700  0.34774991  1
  Se  Se8  1  0.66666700  0.33333300  0.34774991  1
  Se  Se9  1  0.33333300  0.00000000  0.34774991  1
  Se  Se10  1  0.00000000  0.33333300  0.44096717  1
  Se  Se11  1  0.66666700  0.00000000  0.44096717  1
  S  S12  1  0.66666700  0.33333300  0.65385452  1
  S  S13  1  0.33333300  0.00000000  0.65385452  1
  S  S14  1  0.66666700  0.00000000  0.56301587  1
  S  S15  1  0.33333300  0.66666700  0.56301587  1
  S  S16  1  0.00000000  0.33333300  0.56301587  1
  S  S17  1  0.00000000  0.66666700  0.65385452  1
