# generated using pymatgen
data_Te8Pd7(Pt2O7)2
_symmetry_space_group_name_H-M   'P 1'
_cell_length_a   8.10876081
_cell_length_b   8.10876078
_cell_length_c   30.00000000
_cell_angle_alpha   90.00000000
_cell_angle_beta   90.00000000
_cell_angle_gamma   60.00000187
_symmetry_Int_Tables_number   1
_chemical_formula_structural   Te8Pd7(Pt2O7)2
_chemical_formula_sum   'Te8 Pd7 Pt4 O14'
_cell_volume   1708.28714608
_cell_formula_units_Z   1
loop_
 _symmetry_equiv_pos_site_id
 _symmetry_equiv_pos_as_xyz
  1  'x, y, z'
loop_
 _atom_site_type_symbol
 _atom_site_label
 _atom_site_symmetry_multiplicity
 _atom_site_fract_x
 _atom_site_fract_y
 _atom_site_fract_z
 _atom_site_occupancy
  Te  Te0  1  0.82970023  0.33619855  0.45929774  1
  Te  Te1  1  0.33333300  0.33333300  0.45969086  1
  Te  Te2  1  0.33619855  0.83410022  0.45929774  1
  Te  Te3  1  0.66666700  0.66666700  0.36867518  1
  Te  Te4  1  0.66864707  0.16825778  0.36864423  1
  Te  Te5  1  0.16309615  0.66864707  0.36864423  1
  Te  Te6  1  0.16825778  0.16309615  0.36864423  1
  Te  Te7  1  0.83410022  0.82970023  0.45929774  1
  Pd  Pd8  1  0.00000000  0.00000000  0.58103985  1
  Pd  Pd9  1  0.14356645  0.28569976  0.58042787  1
  Pd  Pd10  1  0.57073379  0.14356645  0.58042787  1
  Pd  Pd11  1  0.28569976  0.57073379  0.58042787  1
  Pd  Pd12  1  0.71373914  0.42870005  0.58037801  1
  Pd  Pd13  1  0.42870005  0.85756082  0.58037801  1
  Pd  Pd14  1  0.85756082  0.71373914  0.58037801  1
  Pt  Pt15  1  0.49778754  0.50163668  0.41413893  1
  Pt  Pt16  1  0.50163668  0.00057579  0.41413893  1
  Pt  Pt17  1  0.00057579  0.49778754  0.41413893  1
  Pt  Pt18  1  0.00000000  0.00000000  0.41532964  1
  O  O19  1  0.52367637  0.38090304  0.54658838  1
  O  O20  1  0.04852797  0.75954511  0.61367284  1
  O  O21  1  0.61772649  0.90587394  0.61333510  1
  O  O22  1  0.90587394  0.47639958  0.61333510  1
  O  O23  1  0.47639958  0.61772649  0.61333510  1
  O  O24  1  0.95378125  0.23683944  0.54698412  1
  O  O25  1  0.33333300  0.33333300  0.61381396  1
  O  O26  1  0.19192692  0.04852797  0.61367284  1
  O  O27  1  0.80937931  0.95378125  0.54698412  1
  O  O28  1  0.38090304  0.09542059  0.54658838  1
  O  O29  1  0.66666700  0.66666700  0.54647182  1
  O  O30  1  0.23683944  0.80937931  0.54698412  1
  O  O31  1  0.09542059  0.52367637  0.54658838  1
  O  O32  1  0.75954511  0.19192692  0.61367284  1
