# generated using pymatgen
data_NiPdO4
_symmetry_space_group_name_H-M   'P 1'
_cell_length_a   5.13515700
_cell_length_b   5.13515689
_cell_length_c   30.00000000
_cell_angle_alpha   90.00000000
_cell_angle_beta   90.00000000
_cell_angle_gamma   59.99999286
_symmetry_Int_Tables_number   1
_chemical_formula_structural   NiPdO4
_chemical_formula_sum   'Ni3 Pd3 O12'
_cell_volume   685.10840900
_cell_formula_units_Z   3
loop_
 _symmetry_equiv_pos_site_id
 _symmetry_equiv_pos_as_xyz
  1  'x, y, z'
loop_
 _atom_site_type_symbol
 _atom_site_label
 _atom_site_symmetry_multiplicity
 _atom_site_fract_x
 _atom_site_fract_y
 _atom_site_fract_z
 _atom_site_occupancy
  Ni  Ni0  1  0.00000000  0.00000000  0.57975750  1
  Ni  Ni1  1  0.33333300  0.33333300  0.57975750  1
  Ni  Ni2  1  0.66666700  0.66666700  0.57975750  1
  Pd  Pd3  1  0.66666700  0.66666700  0.41939811  1
  Pd  Pd4  1  0.33333300  0.33333300  0.41939811  1
  Pd  Pd5  1  0.00000000  0.00000000  0.41939811  1
  O  O6  1  0.33333300  0.00000000  0.45414472  1
  O  O7  1  0.66666700  0.00000000  0.38454249  1
  O  O8  1  0.33333300  0.66666700  0.38454249  1
  O  O9  1  0.00000000  0.33333300  0.38454249  1
  O  O10  1  0.00000000  0.33333300  0.60920533  1
  O  O11  1  0.66666700  0.00000000  0.60920533  1
  O  O12  1  0.33333300  0.66666700  0.60920533  1
  O  O13  1  0.00000000  0.66666700  0.55037685  1
  O  O14  1  0.66666700  0.33333300  0.55037685  1
  O  O15  1  0.33333300  0.00000000  0.55037685  1
  O  O16  1  0.66666700  0.33333300  0.45414472  1
  O  O17  1  0.00000000  0.66666700  0.45414472  1
