# generated using pymatgen
data_Hf4Zr3(Te3S4)2
_symmetry_space_group_name_H-M   'P 1'
_cell_length_a   6.93796977
_cell_length_b   6.93797000
_cell_length_c   30.00000000
_cell_angle_alpha   90.00000000
_cell_angle_beta   90.00000000
_cell_angle_gamma   59.99999888
_symmetry_Int_Tables_number   1
_chemical_formula_structural   Hf4Zr3(Te3S4)2
_chemical_formula_sum   'Hf4 Zr3 Te6 S8'
_cell_volume   1250.59504051
_cell_formula_units_Z   1
loop_
 _symmetry_equiv_pos_site_id
 _symmetry_equiv_pos_as_xyz
  1  'x, y, z'
loop_
 _atom_site_type_symbol
 _atom_site_label
 _atom_site_symmetry_multiplicity
 _atom_site_fract_x
 _atom_site_fract_y
 _atom_site_fract_z
 _atom_site_occupancy
  Hf  Hf0  1  0.00000000  0.00000000  0.60340362  1
  Hf  Hf1  1  0.99966655  0.50080773  0.60851335  1
  Hf  Hf2  1  0.49952572  0.99966655  0.60851335  1
  Hf  Hf3  1  0.50080773  0.49952572  0.60851335  1
  Zr  Zr4  1  0.66666700  0.66666700  0.37589212  1
  Zr  Zr5  1  0.33333300  0.33333300  0.38867441  1
  Zr  Zr6  1  0.00000000  0.00000000  0.38800414  1
  Te  Te7  1  0.34685178  0.98539475  0.44486271  1
  Te  Te8  1  0.01377457  0.66589016  0.32310277  1
  Te  Te9  1  0.66589016  0.32033527  0.32310277  1
  Te  Te10  1  0.32033527  0.01377457  0.32310277  1
  Te  Te11  1  0.98539475  0.66775347  0.44486271  1
  Te  Te12  1  0.66775347  0.34685178  0.44486271  1
  S  S13  1  0.16465230  0.67079576  0.65932407  1
  S  S14  1  0.16455294  0.16465230  0.65932407  1
  S  S15  1  0.66666700  0.66666700  0.55582233  1
  S  S16  1  0.66233269  0.16521100  0.55446999  1
  S  S17  1  0.17245731  0.66233269  0.55446999  1
  S  S18  1  0.16521100  0.17245731  0.55446999  1
  S  S19  1  0.66666700  0.66666700  0.66081070  1
  S  S20  1  0.67079576  0.16455294  0.65932407  1
