# generated using pymatgen
data_Te6Pd3(WS2)4
_symmetry_space_group_name_H-M   'P 1'
_cell_length_a   6.66517263
_cell_length_b   6.66517263
_cell_length_c   30.00000000
_cell_angle_alpha   90.00000000
_cell_angle_beta   90.00000000
_cell_angle_gamma   59.99999375
_symmetry_Int_Tables_number   1
_chemical_formula_structural   Te6Pd3(WS2)4
_chemical_formula_sum   'Te6 Pd3 W4 S8'
_cell_volume   1154.18297415
_cell_formula_units_Z   1
loop_
 _symmetry_equiv_pos_site_id
 _symmetry_equiv_pos_as_xyz
  1  'x, y, z'
loop_
 _atom_site_type_symbol
 _atom_site_label
 _atom_site_symmetry_multiplicity
 _atom_site_fract_x
 _atom_site_fract_y
 _atom_site_fract_z
 _atom_site_occupancy
  Te  Te0  1  0.34746886  0.98505413  0.55151858  1
  Te  Te1  1  0.66747701  0.34746886  0.55151858  1
  Te  Te2  1  0.98505413  0.66747701  0.55151858  1
  Te  Te3  1  0.32143053  0.66561689  0.65145397  1
  Te  Te4  1  0.66561689  0.01295259  0.65145397  1
  Te  Te5  1  0.01295259  0.32143053  0.65145397  1
  Pd  Pd6  1  0.00000000  0.00000000  0.59958640  1
  Pd  Pd7  1  0.33333300  0.33333300  0.59927902  1
  Pd  Pd8  1  0.66666700  0.66666700  0.60504969  1
  W  W9  1  0.50085627  0.49934216  0.39139227  1
  W  W10  1  0.49934216  0.99980157  0.39139227  1
  W  W11  1  0.99980157  0.50085627  0.39139227  1
  W  W12  1  0.00000000  0.00000000  0.39148144  1
  S  S13  1  0.16581893  0.16737367  0.34083958  1
  S  S14  1  0.16737367  0.66680840  0.34083958  1
  S  S15  1  0.66680840  0.16581893  0.34083958  1
  S  S16  1  0.66666700  0.66666700  0.34081605  1
  S  S17  1  0.16494437  0.16862049  0.44185455  1
  S  S18  1  0.16862049  0.66643614  0.44185455  1
  S  S19  1  0.66643614  0.16494437  0.44185455  1
  S  S20  1  0.66666700  0.66666700  0.44206156  1
