# generated using pymatgen
data_GePdO4
_symmetry_space_group_name_H-M   'P 1'
_cell_length_a   5.19086100
_cell_length_b   5.19086032
_cell_length_c   30.00000000
_cell_angle_alpha   90.00000000
_cell_angle_beta   90.00000000
_cell_angle_gamma   60.00000206
_symmetry_Int_Tables_number   1
_chemical_formula_structural   GePdO4
_chemical_formula_sum   'Ge3 Pd3 O12'
_cell_volume   700.05254352
_cell_formula_units_Z   3
loop_
 _symmetry_equiv_pos_site_id
 _symmetry_equiv_pos_as_xyz
  1  'x, y, z'
loop_
 _atom_site_type_symbol
 _atom_site_label
 _atom_site_symmetry_multiplicity
 _atom_site_fract_x
 _atom_site_fract_y
 _atom_site_fract_z
 _atom_site_occupancy
  Ge  Ge0  1  0.00000000  0.00000000  0.58238308  1
  Ge  Ge1  1  0.33333300  0.33333300  0.58238308  1
  Ge  Ge2  1  0.66666700  0.66666700  0.58238308  1
  Pd  Pd3  1  0.66666700  0.66666700  0.41763904  1
  Pd  Pd4  1  0.33333300  0.33333300  0.41763904  1
  Pd  Pd5  1  0.00000000  0.00000000  0.41763904  1
  O  O6  1  0.33333300  0.00000000  0.45176617  1
  O  O7  1  0.66666700  0.00000000  0.38346392  1
  O  O8  1  0.33333300  0.66666700  0.38346392  1
  O  O9  1  0.00000000  0.33333300  0.38346392  1
  O  O10  1  0.00000000  0.33333300  0.61417738  1
  O  O11  1  0.66666700  0.00000000  0.61417738  1
  O  O12  1  0.33333300  0.66666700  0.61417738  1
  O  O13  1  0.00000000  0.66666700  0.55064841  1
  O  O14  1  0.66666700  0.33333300  0.55064841  1
  O  O15  1  0.33333300  0.00000000  0.55064841  1
  O  O16  1  0.66666700  0.33333300  0.45176617  1
  O  O17  1  0.00000000  0.66666700  0.45176617  1
