# generated using pymatgen
data_Ge4Pd3(S3O4)2
_symmetry_space_group_name_H-M   'P 1'
_cell_length_a   5.97739500
_cell_length_b   5.97739532
_cell_length_c   30.00000000
_cell_angle_alpha   90.00000000
_cell_angle_beta   90.00000000
_cell_angle_gamma   59.99999624
_symmetry_Int_Tables_number   1
_chemical_formula_structural   Ge4Pd3(S3O4)2
_chemical_formula_sum   'Ge4 Pd3 S6 O8'
_cell_volume   928.27318499
_cell_formula_units_Z   1
loop_
 _symmetry_equiv_pos_site_id
 _symmetry_equiv_pos_as_xyz
  1  'x, y, z'
loop_
 _atom_site_type_symbol
 _atom_site_label
 _atom_site_symmetry_multiplicity
 _atom_site_fract_x
 _atom_site_fract_y
 _atom_site_fract_z
 _atom_site_occupancy
  Ge  Ge0  1  0.00000000  0.00000000  0.58508436  1
  Ge  Ge1  1  0.99991519  0.50018909  0.58497159  1
  Ge  Ge2  1  0.49989572  0.99991519  0.58497159  1
  Ge  Ge3  1  0.50018909  0.49989572  0.58497159  1
  Pd  Pd4  1  0.66666700  0.66666700  0.40778124  1
  Pd  Pd5  1  0.33333300  0.33333300  0.40849370  1
  Pd  Pd6  1  0.00000000  0.00000000  0.40855819  1
  S  S7  1  0.33600710  0.99755098  0.45129049  1
  S  S8  1  0.66683740  0.00181072  0.36498686  1
  S  S9  1  0.33135187  0.66683740  0.36498686  1
  S  S10  1  0.00181072  0.33135187  0.36498686  1
  S  S11  1  0.99755098  0.66644192  0.45129049  1
  S  S12  1  0.66644192  0.33600710  0.45129049  1
  O  O13  1  0.33333300  0.33333300  0.61682430  1
  O  O14  1  0.33352715  0.83369538  0.61686913  1
  O  O15  1  0.66666700  0.66666700  0.55294829  1
  O  O16  1  0.66679411  0.16560370  0.55311690  1
  O  O17  1  0.16760319  0.66679411  0.55311690  1
  O  O18  1  0.16560370  0.16760319  0.55311690  1
  O  O19  1  0.83277648  0.33352715  0.61686913  1
  O  O20  1  0.83369538  0.83277648  0.61686913  1
