# generated using pymatgen
data_Hf4Pt3(Se3O4)2
_symmetry_space_group_name_H-M   'P 1'
_cell_length_a   6.49509948
_cell_length_b   6.49509900
_cell_length_c   30.00000000
_cell_angle_alpha   90.00000000
_cell_angle_beta   90.00000000
_cell_angle_gamma   59.99999735
_symmetry_Int_Tables_number   1
_chemical_formula_structural   Hf4Pt3(Se3O4)2
_chemical_formula_sum   'Hf4 Pt3 Se6 O8'
_cell_volume   1096.03256287
_cell_formula_units_Z   1
loop_
 _symmetry_equiv_pos_site_id
 _symmetry_equiv_pos_as_xyz
  1  'x, y, z'
loop_
 _atom_site_type_symbol
 _atom_site_label
 _atom_site_symmetry_multiplicity
 _atom_site_fract_x
 _atom_site_fract_y
 _atom_site_fract_z
 _atom_site_occupancy
  Hf  Hf0  1  0.00000000  0.00000000  0.58527311  1
  Hf  Hf1  1  0.99977673  0.49999649  0.58439695  1
  Hf  Hf2  1  0.50022678  0.99977673  0.58439695  1
  Hf  Hf3  1  0.49999649  0.50022678  0.58439695  1
  Pt  Pt4  1  0.66666700  0.66666700  0.40553368  1
  Pt  Pt5  1  0.33333300  0.33333300  0.40643834  1
  Pt  Pt6  1  0.00000000  0.00000000  0.40665403  1
  Se  Se7  1  0.33667244  0.66604181  0.44947181  1
  Se  Se8  1  0.00188263  0.66716786  0.36262769  1
  Se  Se9  1  0.66716786  0.33094952  0.36262769  1
  Se  Se10  1  0.33094952  0.00188263  0.36262769  1
  Se  Se11  1  0.99728576  0.33667244  0.44947181  1
  Se  Se12  1  0.66604181  0.99728576  0.44947181  1
  O  O13  1  0.33333300  0.33333300  0.61641737  1
  O  O14  1  0.33461419  0.83267387  0.61681117  1
  O  O15  1  0.66666700  0.66666700  0.55228631  1
  O  O16  1  0.66804026  0.16701826  0.55279877  1
  O  O17  1  0.16494248  0.66804026  0.55279877  1
  O  O18  1  0.16701826  0.16494248  0.55279877  1
  O  O19  1  0.83271093  0.33461419  0.61681117  1
  O  O20  1  0.83267387  0.83271093  0.61681117  1
