# generated using pymatgen
data_Te2PbWO2
_symmetry_space_group_name_H-M   'P 1'
_cell_length_a   6.01085700
_cell_length_b   6.01085687
_cell_length_c   30.00000000
_cell_angle_alpha   90.00000000
_cell_angle_beta   90.00000000
_cell_angle_gamma   60.00000479
_symmetry_Int_Tables_number   1
_chemical_formula_structural   Te2PbWO2
_chemical_formula_sum   'Te6 Pb3 W3 O6'
_cell_volume   938.69540132
_cell_formula_units_Z   3
loop_
 _symmetry_equiv_pos_site_id
 _symmetry_equiv_pos_as_xyz
  1  'x, y, z'
loop_
 _atom_site_type_symbol
 _atom_site_label
 _atom_site_symmetry_multiplicity
 _atom_site_fract_x
 _atom_site_fract_y
 _atom_site_fract_z
 _atom_site_occupancy
  Te  Te0  1  0.66666700  0.00000000  0.45440601  1
  Te  Te1  1  0.00000000  0.33333300  0.45440601  1
  Te  Te2  1  0.66666700  0.00000000  0.33191702  1
  Te  Te3  1  0.33333300  0.66666700  0.33191702  1
  Te  Te4  1  0.00000000  0.33333300  0.33191702  1
  Te  Te5  1  0.33333300  0.66666700  0.45440601  1
  Pb  Pb6  1  0.00000000  0.00000000  0.58273811  1
  Pb  Pb7  1  0.66666700  0.66666700  0.58273811  1
  Pb  Pb8  1  0.33333300  0.33333300  0.58273811  1
  W  W9  1  0.00000000  0.00000000  0.39339136  1
  W  W10  1  0.33333300  0.33333300  0.39339136  1
  W  W11  1  0.66666700  0.66666700  0.39339136  1
  O  O12  1  0.66666700  0.00000000  0.61674340  1
  O  O13  1  0.00000000  0.66666700  0.54648210  1
  O  O14  1  0.66666700  0.33333300  0.54648210  1
  O  O15  1  0.33333300  0.00000000  0.54648210  1
  O  O16  1  0.33333300  0.66666700  0.61674340  1
  O  O17  1  0.00000000  0.33333300  0.61674340  1
