# generated using pymatgen
data_Ge7(S3O4)2
_symmetry_space_group_name_H-M   'P 1'
_cell_length_a   5.88154100
_cell_length_b   5.88153995
_cell_length_c   30.00000000
_cell_angle_alpha   90.00000000
_cell_angle_beta   90.00000000
_cell_angle_gamma   59.99999974
_symmetry_Int_Tables_number   1
_chemical_formula_structural   Ge7(S3O4)2
_chemical_formula_sum   'Ge7 S6 O8'
_cell_volume   898.73998862
_cell_formula_units_Z   1
loop_
 _symmetry_equiv_pos_site_id
 _symmetry_equiv_pos_as_xyz
  1  'x, y, z'
loop_
 _atom_site_type_symbol
 _atom_site_label
 _atom_site_symmetry_multiplicity
 _atom_site_fract_x
 _atom_site_fract_y
 _atom_site_fract_z
 _atom_site_occupancy
  Ge  Ge0  1  0.00000000  0.00000000  0.58681497  1
  Ge  Ge1  1  0.99995119  0.50013329  0.58677115  1
  Ge  Ge2  1  0.49991552  0.99995119  0.58677115  1
  Ge  Ge3  1  0.50013329  0.49991552  0.58677115  1
  Ge  Ge4  1  0.66666700  0.66666700  0.40057916  1
  Ge  Ge5  1  0.33333300  0.33333300  0.40077478  1
  Ge  Ge6  1  0.00000000  0.00000000  0.40077417  1
  S  S7  1  0.33434438  0.99903272  0.44770964  1
  S  S8  1  0.66670120  0.00057259  0.35363818  1
  S  S9  1  0.33272621  0.66670120  0.35363818  1
  S  S10  1  0.00057259  0.33272621  0.35363818  1
  S  S11  1  0.99903272  0.66662290  0.44770964  1
  S  S12  1  0.66662290  0.33434438  0.44770964  1
  O  O13  1  0.33333300  0.33333300  0.61924984  1
  O  O14  1  0.33343449  0.83351531  0.61925409  1
  O  O15  1  0.66666700  0.66666700  0.55425373  1
  O  O16  1  0.66669140  0.16604304  0.55436374  1
  O  O17  1  0.16726656  0.66669140  0.55436374  1
  O  O18  1  0.16604304  0.16726656  0.55436374  1
  O  O19  1  0.83304920  0.33343449  0.61925409  1
  O  O20  1  0.83351531  0.83304920  0.61925409  1
