# generated using pymatgen
data_CrTe2MoS2
_symmetry_space_group_name_H-M   'P 1'
_cell_length_a   3.32711739
_cell_length_b   3.32711700
_cell_length_c   30.00000000
_cell_angle_alpha   90.00000000
_cell_angle_beta   90.00000000
_cell_angle_gamma   59.99999389
_symmetry_Int_Tables_number   1
_chemical_formula_structural   CrTe2MoS2
_chemical_formula_sum   'Cr1 Te2 Mo1 S2'
_cell_volume   287.59945368
_cell_formula_units_Z   1
loop_
 _symmetry_equiv_pos_site_id
 _symmetry_equiv_pos_as_xyz
  1  'x, y, z'
loop_
 _atom_site_type_symbol
 _atom_site_label
 _atom_site_symmetry_multiplicity
 _atom_site_fract_x
 _atom_site_fract_y
 _atom_site_fract_z
 _atom_site_occupancy
  Cr  Cr0  1  0.00000000  0.00000000  0.62065415  1
  Te  Te1  1  0.33333300  0.33333300  0.56230674  1
  Te  Te2  1  0.33333300  0.33333300  0.67895641  1
  Mo  Mo3  1  0.00000000  0.00000000  0.38415598  1
  S  S4  1  0.33333300  0.33333300  0.33363133  1
  S  S5  1  0.33333300  0.33333300  0.43456340  1
