# generated using pymatgen
data_Hf3Ti4(Te3S4)2
_symmetry_space_group_name_H-M   'P 1'
_cell_length_a   6.80080621
_cell_length_b   6.80080600
_cell_length_c   30.00000000
_cell_angle_alpha   90.00000000
_cell_angle_beta   90.00000000
_cell_angle_gamma   60.00000100
_symmetry_Int_Tables_number   1
_chemical_formula_structural   Hf3Ti4(Te3S4)2
_chemical_formula_sum   'Hf3 Ti4 Te6 S8'
_cell_volume   1201.63529624
_cell_formula_units_Z   1
loop_
 _symmetry_equiv_pos_site_id
 _symmetry_equiv_pos_as_xyz
  1  'x, y, z'
loop_
 _atom_site_type_symbol
 _atom_site_label
 _atom_site_symmetry_multiplicity
 _atom_site_fract_x
 _atom_site_fract_y
 _atom_site_fract_z
 _atom_site_occupancy
  Hf  Hf0  1  0.66666700  0.66666700  0.38009343  1
  Hf  Hf1  1  0.33333300  0.33333300  0.38606487  1
  Hf  Hf2  1  0.00000000  0.00000000  0.38533788  1
  Ti  Ti3  1  0.00000000  0.00000000  0.60244731  1
  Ti  Ti4  1  0.99948715  0.48918533  0.60308964  1
  Ti  Ti5  1  0.51132752  0.99948715  0.60308964  1
  Ti  Ti6  1  0.48918533  0.51132752  0.60308964  1
  Te  Te7  1  0.99377906  0.33832488  0.44467936  1
  Te  Te8  1  0.66589385  0.00554370  0.32255252  1
  Te  Te9  1  0.32856245  0.66589385  0.32255252  1
  Te  Te10  1  0.00554370  0.32856245  0.32255252  1
  Te  Te11  1  0.66789606  0.99377906  0.44467936  1
  Te  Te12  1  0.33832488  0.66789606  0.44467936  1
  S  S13  1  0.33333300  0.33333300  0.65035606  1
  S  S14  1  0.33268866  0.83043473  0.65066547  1
  S  S15  1  0.66666700  0.66666700  0.55531164  1
  S  S16  1  0.66675521  0.16458164  0.55538294  1
  S  S17  1  0.16866415  0.66675521  0.55538294  1
  S  S18  1  0.16458164  0.16866415  0.55538294  1
  S  S19  1  0.83687560  0.33268866  0.65066547  1
  S  S20  1  0.83043473  0.83687560  0.65066547  1
