# generated using pymatgen
data_TiTe2MoS2
_symmetry_space_group_name_H-M   'P 1'
_cell_length_a   5.96752727
_cell_length_b   5.96752727
_cell_length_c   30.00000000
_cell_angle_alpha   90.00000000
_cell_angle_beta   90.00000000
_cell_angle_gamma   60.00000812
_symmetry_Int_Tables_number   1
_chemical_formula_structural   TiTe2MoS2
_chemical_formula_sum   'Ti3 Te6 Mo3 S6'
_cell_volume   925.21091190
_cell_formula_units_Z   3
loop_
 _symmetry_equiv_pos_site_id
 _symmetry_equiv_pos_as_xyz
  1  'x, y, z'
loop_
 _atom_site_type_symbol
 _atom_site_label
 _atom_site_symmetry_multiplicity
 _atom_site_fract_x
 _atom_site_fract_y
 _atom_site_fract_z
 _atom_site_occupancy
  Ti  Ti0  1  0.66666700  0.66666700  0.38666397  1
  Ti  Ti1  1  0.33333300  0.33333300  0.38666397  1
  Ti  Ti2  1  0.00000000  0.00000000  0.38666397  1
  Te  Te3  1  0.00000000  0.66666700  0.68455064  1
  Te  Te4  1  0.33333300  0.00000000  0.56151085  1
  Te  Te5  1  0.66666700  0.33333300  0.56151085  1
  Te  Te6  1  0.00000000  0.66666700  0.56151085  1
  Te  Te7  1  0.33333300  0.00000000  0.68455064  1
  Te  Te8  1  0.66666700  0.33333300  0.68455064  1
  Mo  Mo9  1  0.00000000  0.00000000  0.62310882  1
  Mo  Mo10  1  0.66666700  0.66666700  0.62310882  1
  Mo  Mo11  1  0.33333300  0.33333300  0.62310882  1
  S  S12  1  0.33333300  0.00000000  0.33746626  1
  S  S13  1  0.66666700  0.33333300  0.33746626  1
  S  S14  1  0.00000000  0.66666700  0.33746626  1
  S  S15  1  0.33333300  0.00000000  0.43611546  1
  S  S16  1  0.66666700  0.33333300  0.43611546  1
  S  S17  1  0.00000000  0.66666700  0.43611546  1
