# generated using pymatgen
data_Ni3W4(S3O4)2
_symmetry_space_group_name_H-M   'P 1'
_cell_length_a   5.73654278
_cell_length_b   5.73654278
_cell_length_c   30.00000000
_cell_angle_alpha   90.00000000
_cell_angle_beta   90.00000000
_cell_angle_gamma   59.99999103
_symmetry_Int_Tables_number   1
_chemical_formula_structural   Ni3W4(S3O4)2
_chemical_formula_sum   'Ni3 W4 S6 O8'
_cell_volume   854.97284291
_cell_formula_units_Z   1
loop_
 _symmetry_equiv_pos_site_id
 _symmetry_equiv_pos_as_xyz
  1  'x, y, z'
loop_
 _atom_site_type_symbol
 _atom_site_label
 _atom_site_symmetry_multiplicity
 _atom_site_fract_x
 _atom_site_fract_y
 _atom_site_fract_z
 _atom_site_occupancy
  Ni  Ni0  1  0.00000003  1.00000000  0.58856655  1
  Ni  Ni1  1  0.33333350  0.33333356  0.58858940  1
  Ni  Ni2  1  0.66666650  0.66666655  0.58904836  1
  W  W3  1  0.50014321  0.49989349  0.40695802  1
  W  W4  1  0.49989349  0.99996464  0.40695802  1
  W  W5  1  0.00000045  0.00000045  0.40694724  1
  W  W6  1  0.99996464  0.50014322  0.40695802  1
  S  S7  1  0.66669614  0.00098117  0.62816285  1
  S  S8  1  0.00098112  0.33232277  0.62816285  1
  S  S9  1  0.99838347  0.66661433  0.54952414  1
  S  S10  1  0.66661415  0.33500247  0.54952417  1
  S  S11  1  0.33500230  0.99838338  0.54952414  1
  S  S12  1  0.33232298  0.66669592  0.62816283  1
  O  O13  1  0.66665904  0.16606232  0.44791563  1
  O  O14  1  0.16655481  0.16675748  0.36594274  1
  O  O15  1  0.16675747  0.66668797  0.36594274  1
  O  O16  1  0.66668796  0.16655482  0.36594274  1
  O  O17  1  0.66666676  0.66666675  0.36596860  1
  O  O18  1  0.16606229  0.16727893  0.44791563  1
  O  O19  1  0.16727890  0.66665905  0.44791563  1
  O  O20  1  0.66666679  0.66666674  0.44800270  1
