# generated using pymatgen
data_Pt7(S3O4)2
_symmetry_space_group_name_H-M   'P 1'
_cell_length_a   6.23684817
_cell_length_b   6.23684800
_cell_length_c   30.00000000
_cell_angle_alpha   90.00000000
_cell_angle_beta   90.00000000
_cell_angle_gamma   60.00000088
_symmetry_Int_Tables_number   1
_chemical_formula_structural   Pt7(S3O4)2
_chemical_formula_sum   'Pt7 S6 O8'
_cell_volume   1010.60681280
_cell_formula_units_Z   1
loop_
 _symmetry_equiv_pos_site_id
 _symmetry_equiv_pos_as_xyz
  1  'x, y, z'
loop_
 _atom_site_type_symbol
 _atom_site_label
 _atom_site_symmetry_multiplicity
 _atom_site_fract_x
 _atom_site_fract_y
 _atom_site_fract_z
 _atom_site_occupancy
  Pt  Pt0  1  0.00000000  0.00000000  0.58003670  1
  Pt  Pt1  1  0.99985232  0.50027880  0.57998991  1
  Pt  Pt2  1  0.49986888  0.99985232  0.57998991  1
  Pt  Pt3  1  0.50027880  0.49986888  0.57998991  1
  Pt  Pt4  1  0.66666700  0.66666700  0.41344975  1
  Pt  Pt5  1  0.33333300  0.33333300  0.41439183  1
  Pt  Pt6  1  0.00000000  0.00000000  0.41436670  1
  S  S7  1  0.33639739  0.99683633  0.45409394  1
  S  S8  1  0.66658707  0.00214397  0.37367120  1
  S  S9  1  0.33126896  0.66658707  0.37367120  1
  S  S10  1  0.00214397  0.33126896  0.37367120  1
  S  S11  1  0.99683633  0.66676628  0.45409394  1
  S  S12  1  0.66676628  0.33639739  0.45409394  1
  O  O13  1  0.33333300  0.33333300  0.61221810  1
  O  O14  1  0.33328073  0.83288508  0.61223328  1
  O  O15  1  0.66666700  0.66666700  0.54776446  1
  O  O16  1  0.66665652  0.16554466  0.54795348  1
  O  O17  1  0.16779982  0.66665652  0.54795348  1
  O  O18  1  0.16554466  0.16779982  0.54795348  1
  O  O19  1  0.83383319  0.33328073  0.61223328  1
  O  O20  1  0.83288508  0.83383319  0.61223328  1
