# generated using pymatgen
data_Cr4Pb3(S4O3)2
_symmetry_space_group_name_H-M   'P 1'
_cell_length_a   5.98197138
_cell_length_b   5.98197100
_cell_length_c   30.00000000
_cell_angle_alpha   90.00000000
_cell_angle_beta   90.00000000
_cell_angle_gamma   59.99999657
_symmetry_Int_Tables_number   1
_chemical_formula_structural   Cr4Pb3(S4O3)2
_chemical_formula_sum   'Cr4 Pb3 S8 O6'
_cell_volume   929.69502187
_cell_formula_units_Z   1
loop_
 _symmetry_equiv_pos_site_id
 _symmetry_equiv_pos_as_xyz
  1  'x, y, z'
loop_
 _atom_site_type_symbol
 _atom_site_label
 _atom_site_symmetry_multiplicity
 _atom_site_fract_x
 _atom_site_fract_y
 _atom_site_fract_z
 _atom_site_occupancy
  Cr  Cr0  1  0.99986520  0.50082634  0.40160497  1
  Cr  Cr1  1  0.50082634  0.49930845  0.40160497  1
  Cr  Cr2  1  0.49930845  0.99986520  0.40160497  1
  Cr  Cr3  1  0.00000000  0.00000000  0.40158775  1
  Pb  Pb4  1  0.00000000  0.00000000  0.58223597  1
  Pb  Pb5  1  0.66666700  0.66666700  0.58243203  1
  Pb  Pb6  1  0.33333300  0.33333300  0.58219618  1
  S  S7  1  0.66639300  0.16548955  0.45067139  1
  S  S8  1  0.16618899  0.16714652  0.35219627  1
  S  S9  1  0.16714652  0.66666549  0.35219627  1
  S  S10  1  0.66666549  0.16618899  0.35219627  1
  S  S11  1  0.66666700  0.66666700  0.35220767  1
  S  S12  1  0.16548955  0.16811844  0.45067139  1
  S  S13  1  0.16811844  0.66639300  0.45067139  1
  S  S14  1  0.66666700  0.66666700  0.45089002  1
  O  O15  1  0.99890334  0.66676596  0.54678377  1
  O  O16  1  0.33251875  0.66663098  0.61685572  1
  O  O17  1  0.66663098  0.00085027  0.61685572  1
  O  O18  1  0.00085027  0.33251875  0.61685572  1
  O  O19  1  0.33433070  0.99890334  0.54678377  1
  O  O20  1  0.66676596  0.33433070  0.54678377  1
