# generated using pymatgen
data_Te6Pd4Pt3S8
_symmetry_space_group_name_H-M   'P 1'
_cell_length_a   7.03136636
_cell_length_b   7.03136600
_cell_length_c   30.00000000
_cell_angle_alpha   90.00000000
_cell_angle_beta   90.00000000
_cell_angle_gamma   60.00000171
_symmetry_Int_Tables_number   1
_chemical_formula_structural   Te6Pd4Pt3S8
_chemical_formula_sum   'Te6 Pd4 Pt3 S8'
_cell_volume   1284.49176904
_cell_formula_units_Z   1
loop_
 _symmetry_equiv_pos_site_id
 _symmetry_equiv_pos_as_xyz
  1  'x, y, z'
loop_
 _atom_site_type_symbol
 _atom_site_label
 _atom_site_symmetry_multiplicity
 _atom_site_fract_x
 _atom_site_fract_y
 _atom_site_fract_z
 _atom_site_occupancy
  Te  Te0  1  0.98936528  0.66740512  0.45690763  1
  Te  Te1  1  0.34322961  0.98936528  0.45690763  1
  Te  Te2  1  0.66635247  0.00907214  0.36614617  1
  Te  Te3  1  0.32457539  0.66635247  0.36614617  1
  Te  Te4  1  0.00907214  0.32457539  0.36614617  1
  Te  Te5  1  0.66740512  0.34322961  0.45690763  1
  Pd  Pd6  1  0.00000000  0.00000000  0.58669561  1
  Pd  Pd7  1  0.50471785  0.49597611  0.58791699  1
  Pd  Pd8  1  0.49597611  0.99930604  0.58791699  1
  Pd  Pd9  1  0.99930604  0.50471785  0.58791699  1
  Pt  Pt10  1  0.00000000  0.00000000  0.41386929  1
  Pt  Pt11  1  0.33333300  0.33333300  0.41364248  1
  Pt  Pt12  1  0.66666700  0.66666700  0.40823680  1
  S  S13  1  0.66666700  0.66666700  0.54547258  1
  S  S14  1  0.32993597  0.82810553  0.62995839  1
  S  S15  1  0.33333300  0.33333300  0.62995452  1
  S  S16  1  0.17494288  0.66412256  0.54540207  1
  S  S17  1  0.84195750  0.32993597  0.62995839  1
  S  S18  1  0.16093557  0.17494288  0.54540207  1
  S  S19  1  0.66412256  0.16093557  0.54540207  1
  S  S20  1  0.82810553  0.84195750  0.62995839  1
