# generated using pymatgen
data_Zr3Sn4(Se3O4)2
_symmetry_space_group_name_H-M   'P 1'
_cell_length_a   6.42974344
_cell_length_b   6.42974300
_cell_length_c   30.00000000
_cell_angle_alpha   90.00000000
_cell_angle_beta   90.00000000
_cell_angle_gamma   59.99999713
_symmetry_Int_Tables_number   1
_chemical_formula_structural   Zr3Sn4(Se3O4)2
_chemical_formula_sum   'Zr3 Sn4 Se6 O8'
_cell_volume   1074.08618915
_cell_formula_units_Z   1
loop_
 _symmetry_equiv_pos_site_id
 _symmetry_equiv_pos_as_xyz
  1  'x, y, z'
loop_
 _atom_site_type_symbol
 _atom_site_label
 _atom_site_symmetry_multiplicity
 _atom_site_fract_x
 _atom_site_fract_y
 _atom_site_fract_z
 _atom_site_occupancy
  Zr  Zr0  1  0.66666700  0.66666700  0.38713043  1
  Zr  Zr1  1  0.33333300  0.33333300  0.39626820  1
  Zr  Zr2  1  0.00000000  0.00000000  0.39719027  1
  Sn  Sn3  1  0.00000000  0.00000000  0.58595878  1
  Sn  Sn4  1  0.99986590  0.49979318  0.58569988  1
  Sn  Sn5  1  0.50034093  0.99986590  0.58569988  1
  Sn  Sn6  1  0.49979318  0.50034093  0.58569988  1
  Se  Se7  1  0.99161375  0.34258382  0.44945925  1
  Se  Se8  1  0.66743031  0.00832792  0.33736569  1
  Se  Se9  1  0.32424176  0.66743031  0.33736569  1
  Se  Se10  1  0.00832792  0.32424176  0.33736569  1
  Se  Se11  1  0.66580243  0.99161375  0.44945925  1
  Se  Se12  1  0.34258382  0.66580243  0.44945925  1
  O  O13  1  0.33333300  0.33333300  0.61957357  1
  O  O14  1  0.33369815  0.83286266  0.61969325  1
  O  O15  1  0.66666700  0.66666700  0.55162334  1
  O  O16  1  0.66702294  0.16754930  0.55185673  1
  O  O17  1  0.16542876  0.66702294  0.55185673  1
  O  O18  1  0.16754930  0.16542876  0.55185673  1
  O  O19  1  0.83343819  0.33369815  0.61969325  1
  O  O20  1  0.83286266  0.83343819  0.61969325  1
