# generated using pymatgen
data_Hf3Ni4(Se3S4)2
_symmetry_space_group_name_H-M   'P 1'
_cell_length_a   6.61977224
_cell_length_b   6.61977200
_cell_length_c   30.00000000
_cell_angle_alpha   90.00000000
_cell_angle_beta   90.00000000
_cell_angle_gamma   60.00000121
_symmetry_Int_Tables_number   1
_chemical_formula_structural   Hf3Ni4(Se3S4)2
_chemical_formula_sum   'Hf3 Ni4 Se6 S8'
_cell_volume   1138.51293963
_cell_formula_units_Z   1
loop_
 _symmetry_equiv_pos_site_id
 _symmetry_equiv_pos_as_xyz
  1  'x, y, z'
loop_
 _atom_site_type_symbol
 _atom_site_label
 _atom_site_symmetry_multiplicity
 _atom_site_fract_x
 _atom_site_fract_y
 _atom_site_fract_z
 _atom_site_occupancy
  Hf  Hf0  1  0.00000000  0.00000000  0.60408039  1
  Hf  Hf1  1  0.33333300  0.33333300  0.60528023  1
  Hf  Hf2  1  0.66666700  0.66666700  0.60469567  1
  Ni  Ni3  1  0.49831017  0.50139160  0.40718137  1
  Ni  Ni4  1  0.50139160  0.00029823  0.40718137  1
  Ni  Ni5  1  0.00000000  0.00000000  0.40722919  1
  Ni  Ni6  1  0.00029823  0.49831017  0.40718137  1
  Se  Se7  1  0.66776874  0.33296141  0.65611950  1
  Se  Se8  1  0.99926985  0.66776874  0.65611950  1
  Se  Se9  1  0.66528563  0.00097137  0.55344078  1
  Se  Se10  1  0.33374300  0.66528563  0.55344078  1
  Se  Se11  1  0.00097137  0.33374300  0.55344078  1
  Se  Se12  1  0.33296141  0.99926985  0.65611950  1
  S  S13  1  0.83569315  0.83059044  0.44638497  1
  S  S14  1  0.16837471  0.16475062  0.36766180  1
  S  S15  1  0.16475062  0.66687567  0.36766180  1
  S  S16  1  0.66687567  0.16837471  0.36766180  1
  S  S17  1  0.66666700  0.66666700  0.36777560  1
  S  S18  1  0.33371541  0.83569315  0.44638497  1
  S  S19  1  0.33333300  0.33333300  0.44674966  1
  S  S20  1  0.83059044  0.33371541  0.44638497  1
