# generated using pymatgen
data_Mo4Pt3O14
_symmetry_space_group_name_H-M   'P 1'
_cell_length_a   5.54076813
_cell_length_b   5.54076900
_cell_length_c   30.00000000
_cell_angle_alpha   90.00000000
_cell_angle_beta   90.00000000
_cell_angle_gamma   60.00000080
_symmetry_Int_Tables_number   1
_chemical_formula_structural   Mo4Pt3O14
_chemical_formula_sum   'Mo4 Pt3 O14'
_cell_volume   797.61242535
_cell_formula_units_Z   1
loop_
 _symmetry_equiv_pos_site_id
 _symmetry_equiv_pos_as_xyz
  1  'x, y, z'
loop_
 _atom_site_type_symbol
 _atom_site_label
 _atom_site_symmetry_multiplicity
 _atom_site_fract_x
 _atom_site_fract_y
 _atom_site_fract_z
 _atom_site_occupancy
  Mo  Mo0  1  0.99998089  0.49964998  0.41359225  1
  Mo  Mo1  1  0.49964998  0.50036913  0.41359225  1
  Mo  Mo2  1  0.50036913  0.99998089  0.41359225  1
  Mo  Mo3  1  0.00000000  0.00000000  0.41353291  1
  Pt  Pt4  1  0.00000000  0.00000000  0.57291076  1
  Pt  Pt5  1  0.66666700  0.66666700  0.57319304  1
  Pt  Pt6  1  0.33333300  0.33333300  0.57292668  1
  O  O7  1  0.66663583  0.99876697  0.54275628  1
  O  O8  1  0.33255324  0.00075725  0.60350683  1
  O  O9  1  0.66668951  0.33255324  0.60350683  1
  O  O10  1  0.00075725  0.66668951  0.60350683  1
  O  O11  1  0.99876697  0.33459720  0.54275628  1
  O  O12  1  0.66669204  0.16788436  0.45521166  1
  O  O13  1  0.16706676  0.16633155  0.37181192  1
  O  O14  1  0.16633155  0.66660269  0.37181192  1
  O  O15  1  0.66660269  0.16706676  0.37181192  1
  O  O16  1  0.66666700  0.66666700  0.37186131  1
  O  O17  1  0.16788436  0.16542461  0.45521166  1
  O  O18  1  0.16542461  0.66669204  0.45521166  1
  O  O19  1  0.33459720  0.66663583  0.54275628  1
  O  O20  1  0.66666700  0.66666700  0.45538149  1
