# generated using pymatgen
data_Hf4Sn3(S3O4)2
_symmetry_space_group_name_H-M   'P 1'
_cell_length_a   6.45191946
_cell_length_b   6.45192000
_cell_length_c   30.00000000
_cell_angle_alpha   90.00000000
_cell_angle_beta   90.00000000
_cell_angle_gamma   59.99999723
_symmetry_Int_Tables_number   1
_chemical_formula_structural   Hf4Sn3(S3O4)2
_chemical_formula_sum   'Hf4 Sn3 S6 O8'
_cell_volume   1081.50812250
_cell_formula_units_Z   1
loop_
 _symmetry_equiv_pos_site_id
 _symmetry_equiv_pos_as_xyz
  1  'x, y, z'
loop_
 _atom_site_type_symbol
 _atom_site_label
 _atom_site_symmetry_multiplicity
 _atom_site_fract_x
 _atom_site_fract_y
 _atom_site_fract_z
 _atom_site_occupancy
  Hf  Hf0  1  0.00000000  0.00000000  0.58574744  1
  Hf  Hf1  1  0.99989487  0.49997192  0.58517601  1
  Hf  Hf2  1  0.50013321  0.99989487  0.58517601  1
  Hf  Hf3  1  0.49997192  0.50013321  0.58517601  1
  Sn  Sn4  1  0.66666700  0.66666700  0.39955583  1
  Sn  Sn5  1  0.33333300  0.33333300  0.39978590  1
  Sn  Sn6  1  0.00000000  0.00000000  0.39981944  1
  S  S7  1  0.33472835  0.66648246  0.44848489  1
  S  S8  1  0.00068940  0.66681950  0.35081241  1
  S  S9  1  0.66681950  0.33249109  0.35081241  1
  S  S10  1  0.33249109  0.00068940  0.35081241  1
  S  S11  1  0.99878919  0.33472835  0.44848489  1
  S  S12  1  0.66648246  0.99878919  0.44848489  1
  O  O13  1  0.33333300  0.33333300  0.61757672  1
  O  O14  1  0.33415591  0.83293637  0.61780925  1
  O  O15  1  0.66666700  0.66666700  0.55270187  1
  O  O16  1  0.66748576  0.16690165  0.55305804  1
  O  O17  1  0.16561359  0.66748576  0.55305804  1
  O  O18  1  0.16690165  0.16561359  0.55305804  1
  O  O19  1  0.83290672  0.33415591  0.61780925  1
  O  O20  1  0.83293637  0.83290672  0.61780925  1
