# generated using pymatgen
data_Hf3Cr4(Se4S3)2
_symmetry_space_group_name_H-M   'P 1'
_cell_length_a   6.37224607
_cell_length_b   6.37224700
_cell_length_c   30.00000000
_cell_angle_alpha   90.00000000
_cell_angle_beta   90.00000000
_cell_angle_gamma   60.00000038
_symmetry_Int_Tables_number   1
_chemical_formula_structural   Hf3Cr4(Se4S3)2
_chemical_formula_sum   'Hf3 Cr4 Se8 S6'
_cell_volume   1054.96251361
_cell_formula_units_Z   1
loop_
 _symmetry_equiv_pos_site_id
 _symmetry_equiv_pos_as_xyz
  1  'x, y, z'
loop_
 _atom_site_type_symbol
 _atom_site_label
 _atom_site_symmetry_multiplicity
 _atom_site_fract_x
 _atom_site_fract_y
 _atom_site_fract_z
 _atom_site_occupancy
  Hf  Hf0  1  0.00000000  0.00000000  0.60384747  1
  Hf  Hf1  1  0.33333300  0.33333300  0.60402093  1
  Hf  Hf2  1  0.66666700  0.66666700  0.60442939  1
  Cr  Cr3  1  0.49940797  0.50090694  0.39111492  1
  Cr  Cr4  1  0.50090694  0.99968508  0.39111492  1
  Cr  Cr5  1  0.00000000  0.00000000  0.39109105  1
  Cr  Cr6  1  0.99968508  0.49940797  0.39111492  1
  Se  Se7  1  0.66658149  0.16807413  0.44341647  1
  Se  Se8  1  0.16717939  0.16619452  0.33866258  1
  Se  Se9  1  0.16619452  0.66662709  0.33866258  1
  Se  Se10  1  0.66662709  0.16717939  0.33866258  1
  Se  Se11  1  0.66666700  0.66666700  0.33863389  1
  Se  Se12  1  0.16807413  0.16534538  0.44341647  1
  Se  Se13  1  0.16534538  0.66658149  0.44341647  1
  Se  Se14  1  0.66666700  0.66666700  0.44368540  1
  S  S15  1  0.66679856  0.33262343  0.65157312  1
  S  S16  1  0.00057801  0.66679856  0.65157312  1
  S  S17  1  0.66652616  0.99923211  0.55675187  1
  S  S18  1  0.33424173  0.66652616  0.55675187  1
  S  S19  1  0.99923211  0.33424173  0.55675187  1
  S  S20  1  0.33262343  0.00057801  0.65157312  1
