# generated using pymatgen
data_Ti4Cr3(Te3O4)2
_symmetry_space_group_name_H-M   'P 1'
_cell_length_a   5.99121801
_cell_length_b   5.99121801
_cell_length_c   30.00000000
_cell_angle_alpha   90.00000000
_cell_angle_beta   90.00000000
_cell_angle_gamma   59.99999988
_symmetry_Int_Tables_number   1
_chemical_formula_structural   Ti4Cr3(Te3O4)2
_chemical_formula_sum   'Ti4 Cr3 Te6 O8'
_cell_volume   932.57148541
_cell_formula_units_Z   1
loop_
 _symmetry_equiv_pos_site_id
 _symmetry_equiv_pos_as_xyz
  1  'x, y, z'
loop_
 _atom_site_type_symbol
 _atom_site_label
 _atom_site_symmetry_multiplicity
 _atom_site_fract_x
 _atom_site_fract_y
 _atom_site_fract_z
 _atom_site_occupancy
  Ti  Ti0  1  0.00000000  0.00000000  0.58490655  1
  Ti  Ti1  1  0.99722706  0.50030905  0.59006219  1
  Ti  Ti2  1  0.50246389  0.99722706  0.59006219  1
  Ti  Ti3  1  0.50030905  0.50246389  0.59006219  1
  Cr  Cr4  1  0.66666700  0.66666700  0.38745259  1
  Cr  Cr5  1  0.33333300  0.33333300  0.38770026  1
  Cr  Cr6  1  0.00000000  0.00000000  0.38773828  1
  Te  Te7  1  0.33407559  0.99934453  0.44615697  1
  Te  Te8  1  0.00044953  0.66675916  0.32919554  1
  Te  Te9  1  0.66675916  0.33279131  0.32919554  1
  Te  Te10  1  0.33279131  0.00044953  0.32919554  1
  Te  Te11  1  0.99934453  0.66657988  0.44615697  1
  Te  Te12  1  0.66657988  0.33407559  0.44615697  1
  O  O13  1  0.33333300  0.33333300  0.62139977  1
  O  O14  1  0.33305169  0.83359722  0.62115813  1
  O  O15  1  0.66666700  0.66666700  0.55596625  1
  O  O16  1  0.66627934  0.16610120  0.55558960  1
  O  O17  1  0.16762046  0.66627934  0.55558960  1
  O  O18  1  0.16610120  0.16762046  0.55558960  1
  O  O19  1  0.83335008  0.33305169  0.62115813  1
  O  O20  1  0.83359722  0.83335008  0.62115813  1
