# generated using pymatgen
data_Zr4Sn3(Se3O4)2
_symmetry_space_group_name_H-M   'P 1'
_cell_length_a   6.61043196
_cell_length_b   6.61043196
_cell_length_c   30.00000000
_cell_angle_alpha   90.00000000
_cell_angle_beta   90.00000000
_cell_angle_gamma   60.00000036
_symmetry_Int_Tables_number   1
_chemical_formula_structural   Zr4Sn3(Se3O4)2
_chemical_formula_sum   'Zr4 Sn3 Se6 O8'
_cell_volume   1135.30243003
_cell_formula_units_Z   1
loop_
 _symmetry_equiv_pos_site_id
 _symmetry_equiv_pos_as_xyz
  1  'x, y, z'
loop_
 _atom_site_type_symbol
 _atom_site_label
 _atom_site_symmetry_multiplicity
 _atom_site_fract_x
 _atom_site_fract_y
 _atom_site_fract_z
 _atom_site_occupancy
  Zr  Zr0  1  0.00008776  0.49990010  0.41379415  1
  Zr  Zr1  1  0.49990010  0.50001214  0.41379415  1
  Zr  Zr2  1  0.50001214  0.00008776  0.41379415  1
  Zr  Zr3  1  0.00000000  0.00000000  0.41318054  1
  Sn  Sn4  1  0.00000000  0.00000000  0.60600196  1
  Sn  Sn5  1  0.66666700  0.66666700  0.60589549  1
  Sn  Sn6  1  0.33333300  0.33333300  0.60616898  1
  Se  Se7  1  0.00129802  0.66535917  0.55250643  1
  Se  Se8  1  0.33334081  0.66744466  0.65964338  1
  Se  Se9  1  0.66744466  0.99921453  0.65964338  1
  Se  Se10  1  0.99921453  0.33334081  0.65964338  1
  Se  Se11  1  0.33334281  0.00129802  0.55250643  1
  Se  Se12  1  0.66535917  0.33334281  0.55250643  1
  O  O13  1  0.83299882  0.83448680  0.44518207  1
  O  O14  1  0.16710156  0.16699912  0.38181593  1
  O  O15  1  0.16699912  0.66590032  0.38181593  1
  O  O16  1  0.66590032  0.16710156  0.38181593  1
  O  O17  1  0.66666700  0.66666700  0.38206108  1
  O  O18  1  0.33251337  0.83299882  0.44518207  1
  O  O19  1  0.33333300  0.33333300  0.44554010  1
  O  O20  1  0.83448680  0.33251337  0.44518207  1
