# generated using pymatgen
data_Ti7(S3O4)2
_symmetry_space_group_name_H-M   'P 1'
_cell_length_a   5.88135985
_cell_length_b   5.88136000
_cell_length_c   30.00000000
_cell_angle_alpha   90.00000000
_cell_angle_beta   90.00000000
_cell_angle_gamma   59.99999918
_symmetry_Int_Tables_number   1
_chemical_formula_structural   Ti7(S3O4)2
_chemical_formula_sum   'Ti7 S6 O8'
_cell_volume   898.68480581
_cell_formula_units_Z   1
loop_
 _symmetry_equiv_pos_site_id
 _symmetry_equiv_pos_as_xyz
  1  'x, y, z'
loop_
 _atom_site_type_symbol
 _atom_site_label
 _atom_site_symmetry_multiplicity
 _atom_site_fract_x
 _atom_site_fract_y
 _atom_site_fract_z
 _atom_site_occupancy
  Ti  Ti0  1  0.00000000  0.00000000  0.59086951  1
  Ti  Ti1  1  0.00265887  0.49883949  0.58227722  1
  Ti  Ti2  1  0.49850164  0.00265887  0.58227722  1
  Ti  Ti3  1  0.49883949  0.49850164  0.58227722  1
  Ti  Ti4  1  0.66666700  0.66666700  0.39305574  1
  Ti  Ti5  1  0.33333300  0.33333300  0.40368058  1
  Ti  Ti6  1  0.00000000  0.00000000  0.40262127  1
  S  S7  1  0.99349714  0.33894794  0.44919536  1
  S  S8  1  0.66619274  0.00714610  0.35003133  1
  S  S9  1  0.32666116  0.66619274  0.35003133  1
  S  S10  1  0.00714610  0.32666116  0.35003133  1
  S  S11  1  0.66755492  0.99349714  0.44919536  1
  S  S12  1  0.33894794  0.66755492  0.44919536  1
  O  O13  1  0.33333300  0.33333300  0.61675184  1
  O  O14  1  0.33854570  0.83069713  0.61825917  1
  O  O15  1  0.66666700  0.66666700  0.54990025  1
  O  O16  1  0.67175149  0.16464235  0.55135753  1
  O  O17  1  0.16360716  0.67175149  0.55135753  1
  O  O18  1  0.16464235  0.16360716  0.55135753  1
  O  O19  1  0.83075616  0.33854570  0.61825917  1
  O  O20  1  0.83069713  0.83075616  0.61825917  1
