# generated using pymatgen
data_Cr4Sn3(Se3S4)2
_symmetry_space_group_name_H-M   'P 1'
_cell_length_a   6.39142216
_cell_length_b   6.39142216
_cell_length_c   30.00000000
_cell_angle_alpha   90.00000000
_cell_angle_beta   90.00000000
_cell_angle_gamma   59.99999837
_symmetry_Int_Tables_number   1
_chemical_formula_structural   Cr4Sn3(Se3S4)2
_chemical_formula_sum   'Cr4 Sn3 Se6 S8'
_cell_volume   1061.32131662
_cell_formula_units_Z   1
loop_
 _symmetry_equiv_pos_site_id
 _symmetry_equiv_pos_as_xyz
  1  'x, y, z'
loop_
 _atom_site_type_symbol
 _atom_site_label
 _atom_site_symmetry_multiplicity
 _atom_site_fract_x
 _atom_site_fract_y
 _atom_site_fract_z
 _atom_site_occupancy
  Cr  Cr0  1  0.99978559  0.50095798  0.39484201  1
  Cr  Cr1  1  0.50095798  0.49925643  0.39484201  1
  Cr  Cr2  1  0.49925643  0.99978559  0.39484201  1
  Cr  Cr3  1  0.00000000  0.00000000  0.39475028  1
  Sn  Sn4  1  0.00000000  0.00000000  0.60822210  1
  Sn  Sn5  1  0.66666700  0.66666700  0.60900151  1
  Sn  Sn6  1  0.33333300  0.33333300  0.60813453  1
  Se  Se7  1  0.99777218  0.66684431  0.55351474  1
  Se  Se8  1  0.33182902  0.66652247  0.66341672  1
  Se  Se9  1  0.66652247  0.00164851  0.66341672  1
  Se  Se10  1  0.00164851  0.33182902  0.66341672  1
  Se  Se11  1  0.33538351  0.99777218  0.55351474  1
  Se  Se12  1  0.66684431  0.33538351  0.55351474  1
  S  S13  1  0.66669663  0.16482451  0.44223181  1
  S  S14  1  0.16611893  0.16739427  0.34723966  1
  S  S15  1  0.16739427  0.66648781  0.34723966  1
  S  S16  1  0.66648781  0.16611893  0.34723966  1
  S  S17  1  0.66666700  0.66666700  0.34730093  1
  S  S18  1  0.16482451  0.16847987  0.44223181  1
  S  S19  1  0.16847987  0.66669663  0.44223181  1
  S  S20  1  0.66666700  0.66666700  0.44252984  1
