# generated using pymatgen
data_Zr4Ni7(S4O7)2
_symmetry_space_group_name_H-M   'P 1'
_cell_length_a   7.43137046
_cell_length_b   7.43137137
_cell_length_c   30.00000000
_cell_angle_alpha   90.00000000
_cell_angle_beta   90.00000000
_cell_angle_gamma   59.99999827
_symmetry_Int_Tables_number   1
_chemical_formula_structural   Zr4Ni7(S4O7)2
_chemical_formula_sum   'Zr4 Ni7 S8 O14'
_cell_volume   1434.79467299
_cell_formula_units_Z   1
loop_
 _symmetry_equiv_pos_site_id
 _symmetry_equiv_pos_as_xyz
  1  'x, y, z'
loop_
 _atom_site_type_symbol
 _atom_site_label
 _atom_site_symmetry_multiplicity
 _atom_site_fract_x
 _atom_site_fract_y
 _atom_site_fract_z
 _atom_site_occupancy
  Zr  Zr0  1  0.00000000  0.00000000  0.40825229  1
  Zr  Zr1  1  0.49941432  0.99968343  0.40825569  1
  Zr  Zr2  1  0.50090226  0.49941432  0.40825569  1
  Zr  Zr3  1  0.99968343  0.50090226  0.40825569  1
  Ni  Ni4  1  0.85724196  0.71430900  0.58164835  1
  Ni  Ni5  1  0.00000000  0.00000000  0.58163841  1
  Ni  Ni6  1  0.42844904  0.85724196  0.58164835  1
  Ni  Ni7  1  0.57166912  0.14258419  0.58186506  1
  Ni  Ni8  1  0.28574669  0.57166912  0.58186506  1
  Ni  Ni9  1  0.14258419  0.28574669  0.58186506  1
  Ni  Ni10  1  0.71430900  0.42844904  0.58164835  1
  S  S11  1  0.33333300  0.33333300  0.45537668  1
  S  S12  1  0.66666700  0.66666700  0.36030970  1
  S  S13  1  0.66673381  0.16673049  0.36039068  1
  S  S14  1  0.16653670  0.66673381  0.36039068  1
  S  S15  1  0.16673049  0.16653670  0.36039068  1
  S  S16  1  0.33324926  0.83356496  0.45574086  1
  S  S17  1  0.83318478  0.33324926  0.45574086  1
  S  S18  1  0.83356496  0.83318478  0.45574086  1
  O  O19  1  0.66666700  0.66666700  0.61334909  1
  O  O20  1  0.95209169  0.23775449  0.61346600  1
  O  O21  1  0.09490684  0.52426534  0.61350730  1
  O  O22  1  0.38082782  0.09490684  0.61350730  1
  O  O23  1  0.23775449  0.81015381  0.61346600  1
  O  O24  1  0.04823052  0.76157261  0.54989613  1
  O  O25  1  0.90493223  0.47639585  0.54989028  1
  O  O26  1  0.61867191  0.90493223  0.54989028  1
  O  O27  1  0.76157261  0.19019688  0.54989613  1
  O  O28  1  0.47639585  0.61867191  0.54989028  1
  O  O29  1  0.33333300  0.33333300  0.55020276  1
  O  O30  1  0.19019688  0.04823052  0.54989613  1
  O  O31  1  0.81015381  0.95209169  0.61346600  1
  O  O32  1  0.52426534  0.38082782  0.61350730  1
