# generated using pymatgen
data_HfW(SeS)2
_symmetry_space_group_name_H-M   'P 1'
_cell_length_a   5.94274900
_cell_length_b   5.94274909
_cell_length_c   30.00000000
_cell_angle_alpha   90.00000000
_cell_angle_beta   90.00000000
_cell_angle_gamma   60.00000609
_symmetry_Int_Tables_number   1
_chemical_formula_structural   HfW(SeS)2
_chemical_formula_sum   'Hf3 W3 Se6 S6'
_cell_volume   917.54356819
_cell_formula_units_Z   3
loop_
 _symmetry_equiv_pos_site_id
 _symmetry_equiv_pos_as_xyz
  1  'x, y, z'
loop_
 _atom_site_type_symbol
 _atom_site_label
 _atom_site_symmetry_multiplicity
 _atom_site_fract_x
 _atom_site_fract_y
 _atom_site_fract_z
 _atom_site_occupancy
  Hf  Hf0  1  0.00000000  0.00000000  0.60263213  1
  Hf  Hf1  1  0.33333300  0.33333300  0.60263213  1
  Hf  Hf2  1  0.66666700  0.66666700  0.60263213  1
  W  W3  1  0.66666700  0.66666700  0.39380863  1
  W  W4  1  0.33333300  0.33333300  0.39380863  1
  W  W5  1  0.00000000  0.00000000  0.39380863  1
  Se  Se6  1  0.33333300  0.00000000  0.44800970  1
  Se  Se7  1  0.00000000  0.66666700  0.33937723  1
  Se  Se8  1  0.66666700  0.33333300  0.33937723  1
  Se  Se9  1  0.33333300  0.00000000  0.33937723  1
  Se  Se10  1  0.00000000  0.66666700  0.44800970  1
  Se  Se11  1  0.66666700  0.33333300  0.44800970  1
  S  S12  1  0.33333300  0.66666700  0.65550252  1
  S  S13  1  0.00000000  0.33333300  0.65550252  1
  S  S14  1  0.66666700  0.00000000  0.54965080  1
  S  S15  1  0.33333300  0.66666700  0.54965080  1
  S  S16  1  0.00000000  0.33333300  0.54965080  1
  S  S17  1  0.66666700  0.00000000  0.65550252  1
