# generated using pymatgen
data_Te4MoW
_symmetry_space_group_name_H-M   'P 1'
_cell_length_a   6.14658769
_cell_length_b   6.14658769
_cell_length_c   30.00000000
_cell_angle_alpha   90.00000000
_cell_angle_beta   90.00000000
_cell_angle_gamma   60.00000331
_symmetry_Int_Tables_number   1
_chemical_formula_structural   Te4MoW
_chemical_formula_sum   'Te12 Mo3 W3'
_cell_volume   981.56726188
_cell_formula_units_Z   3
loop_
 _symmetry_equiv_pos_site_id
 _symmetry_equiv_pos_as_xyz
  1  'x, y, z'
loop_
 _atom_site_type_symbol
 _atom_site_label
 _atom_site_symmetry_multiplicity
 _atom_site_fract_x
 _atom_site_fract_y
 _atom_site_fract_z
 _atom_site_occupancy
  Te  Te0  1  0.00000000  0.66666700  0.68957803  1
  Te  Te1  1  0.33333300  0.00000000  0.43055825  1
  Te  Te2  1  0.00000000  0.66666700  0.30994951  1
  Te  Te3  1  0.66666700  0.33333300  0.30994951  1
  Te  Te4  1  0.33333300  0.00000000  0.30994951  1
  Te  Te5  1  0.66666700  0.33333300  0.43055825  1
  Te  Te6  1  0.66666700  0.33333300  0.68957803  1
  Te  Te7  1  0.00000000  0.66666700  0.43055825  1
  Te  Te8  1  0.00000000  0.66666700  0.56945884  1
  Te  Te9  1  0.66666700  0.33333300  0.56945884  1
  Te  Te10  1  0.33333300  0.00000000  0.56945884  1
  Te  Te11  1  0.33333300  0.00000000  0.68957803  1
  Mo  Mo12  1  0.66666700  0.66666700  0.62950373  1
  Mo  Mo13  1  0.33333300  0.33333300  0.62950373  1
  Mo  Mo14  1  0.00000000  0.00000000  0.62950373  1
  W  W15  1  0.00000000  0.00000000  0.37026465  1
  W  W16  1  0.33333300  0.33333300  0.37026465  1
  W  W17  1  0.66666700  0.66666700  0.37026465  1
