# generated using pymatgen
data_TiWS4
_symmetry_space_group_name_H-M   'P 1'
_cell_length_a   3.30048761
_cell_length_b   3.30048700
_cell_length_c   30.00000000
_cell_angle_alpha   90.00000000
_cell_angle_beta   90.00000000
_cell_angle_gamma   59.99999607
_symmetry_Int_Tables_number   1
_chemical_formula_structural   TiWS4
_chemical_formula_sum   'Ti1 W1 S4'
_cell_volume   283.01405385
_cell_formula_units_Z   1
loop_
 _symmetry_equiv_pos_site_id
 _symmetry_equiv_pos_as_xyz
  1  'x, y, z'
loop_
 _atom_site_type_symbol
 _atom_site_label
 _atom_site_symmetry_multiplicity
 _atom_site_fract_x
 _atom_site_fract_y
 _atom_site_fract_z
 _atom_site_occupancy
  Ti  Ti0  1  0.00000000  0.00000000  0.60563105  1
  W  W1  1  0.00000000  0.00000000  0.38925061  1
  S  S2  1  0.33333300  0.33333300  0.55686130  1
  S  S3  1  0.66666700  0.66666700  0.65471153  1
  S  S4  1  0.33333300  0.33333300  0.33830497  1
  S  S5  1  0.33333300  0.33333300  0.44007255  1
