# generated using pymatgen
data_Sn3Mo4(Se3S4)2
_symmetry_space_group_name_H-M   'P 1'
_cell_length_a   6.52991811
_cell_length_b   6.52991811
_cell_length_c   30.00000000
_cell_angle_alpha   90.00000000
_cell_angle_beta   90.00000000
_cell_angle_gamma   59.99999888
_symmetry_Int_Tables_number   1
_chemical_formula_structural   Sn3Mo4(Se3S4)2
_chemical_formula_sum   'Sn3 Mo4 Se6 S8'
_cell_volume   1107.81528102
_cell_formula_units_Z   1
loop_
 _symmetry_equiv_pos_site_id
 _symmetry_equiv_pos_as_xyz
  1  'x, y, z'
loop_
 _atom_site_type_symbol
 _atom_site_label
 _atom_site_symmetry_multiplicity
 _atom_site_fract_x
 _atom_site_fract_y
 _atom_site_fract_z
 _atom_site_occupancy
  Sn  Sn0  1  0.00000000  0.00000000  0.60800881  1
  Sn  Sn1  1  0.33333300  0.33333300  0.60795935  1
  Sn  Sn2  1  0.66666700  0.66666700  0.60866227  1
  Mo  Mo3  1  0.50078860  0.49936797  0.39203440  1
  Mo  Mo4  1  0.49936797  0.99984342  0.39203440  1
  Mo  Mo5  1  0.00000000  0.00000000  0.39198819  1
  Mo  Mo6  1  0.99984342  0.50078860  0.39203440  1
  Se  Se7  1  0.66659283  0.00145345  0.66233448  1
  Se  Se8  1  0.00145345  0.33195372  0.66233448  1
  Se  Se9  1  0.99781540  0.66677637  0.55412563  1
  Se  Se10  1  0.66677637  0.33540823  0.55412563  1
  Se  Se11  1  0.33540823  0.99781540  0.55412563  1
  Se  Se12  1  0.33195372  0.66659283  0.66233448  1
  S  S13  1  0.66659198  0.16522734  0.44302930  1
  S  S14  1  0.16609920  0.16734910  0.34086009  1
  S  S15  1  0.16734910  0.66655269  0.34086009  1
  S  S16  1  0.66655269  0.16609920  0.34086009  1
  S  S17  1  0.66666700  0.66666700  0.34089996  1
  S  S18  1  0.16522734  0.16818168  0.44302930  1
  S  S19  1  0.16818168  0.66659198  0.44302930  1
  S  S20  1  0.66666700  0.66666700  0.44331977  1
