# generated using pymatgen
data_Hf3Pd4(S3O4)2
_symmetry_space_group_name_H-M   'P 1'
_cell_length_a   6.16219886
_cell_length_b   6.16219900
_cell_length_c   30.00000000
_cell_angle_alpha   90.00000000
_cell_angle_beta   90.00000000
_cell_angle_gamma   60.00000460
_symmetry_Int_Tables_number   1
_chemical_formula_structural   Hf3Pd4(S3O4)2
_chemical_formula_sum   'Hf3 Pd4 S6 O8'
_cell_volume   986.55961769
_cell_formula_units_Z   1
loop_
 _symmetry_equiv_pos_site_id
 _symmetry_equiv_pos_as_xyz
  1  'x, y, z'
loop_
 _atom_site_type_symbol
 _atom_site_label
 _atom_site_symmetry_multiplicity
 _atom_site_fract_x
 _atom_site_fract_y
 _atom_site_fract_z
 _atom_site_occupancy
  Hf  Hf0  1  0.66666700  0.66666700  0.39693819  1
  Hf  Hf1  1  0.33333300  0.33333300  0.40485664  1
  Hf  Hf2  1  0.00000000  0.00000000  0.40789094  1
  Pd  Pd3  1  0.00000000  0.00000000  0.58069892  1
  Pd  Pd4  1  0.99987748  0.50013263  0.58064896  1
  Pd  Pd5  1  0.49998989  0.99987748  0.58064896  1
  Pd  Pd6  1  0.50013263  0.49998989  0.58064896  1
  S  S7  1  0.34245248  0.99331787  0.45470162  1
  S  S8  1  0.00675551  0.66865462  0.35135006  1
  S  S9  1  0.66865462  0.32458987  0.35135006  1
  S  S10  1  0.32458987  0.00675551  0.35135006  1
  S  S11  1  0.99331787  0.66422965  0.45470162  1
  S  S12  1  0.66422965  0.34245248  0.45470162  1
  O  O13  1  0.33333300  0.33333300  0.61321871  1
  O  O14  1  0.33321580  0.83277762  0.61323605  1
  O  O15  1  0.66666700  0.66666700  0.54799489  1
  O  O16  1  0.66664294  0.16570198  0.54814222  1
  O  O17  1  0.16765608  0.66664294  0.54814222  1
  O  O18  1  0.16570198  0.16765608  0.54814222  1
  O  O19  1  0.83400558  0.33321580  0.61323605  1
  O  O20  1  0.83277762  0.83400558  0.61323605  1
