# generated using pymatgen
data_HfTe2WO2
_symmetry_space_group_name_H-M   'P 1'
_cell_length_a   5.89001558
_cell_length_b   5.89001558
_cell_length_c   30.00000000
_cell_angle_alpha   90.00000000
_cell_angle_beta   90.00000000
_cell_angle_gamma   60.00000471
_symmetry_Int_Tables_number   1
_chemical_formula_structural   HfTe2WO2
_chemical_formula_sum   'Hf3 Te6 W3 O6'
_cell_volume   901.33200853
_cell_formula_units_Z   3
loop_
 _symmetry_equiv_pos_site_id
 _symmetry_equiv_pos_as_xyz
  1  'x, y, z'
loop_
 _atom_site_type_symbol
 _atom_site_label
 _atom_site_symmetry_multiplicity
 _atom_site_fract_x
 _atom_site_fract_y
 _atom_site_fract_z
 _atom_site_occupancy
  Hf  Hf0  1  0.00000000  0.00000000  0.58408464  1
  Hf  Hf1  1  0.33333300  0.33333300  0.58408464  1
  Hf  Hf2  1  0.66666700  0.66666700  0.58408464  1
  Te  Te3  1  0.33333300  0.00000000  0.45013500  1
  Te  Te4  1  0.00000000  0.66666700  0.32559729  1
  Te  Te5  1  0.66666700  0.33333300  0.32559729  1
  Te  Te6  1  0.33333300  0.00000000  0.32559729  1
  Te  Te7  1  0.66666700  0.33333300  0.45013500  1
  Te  Te8  1  0.00000000  0.66666700  0.45013500  1
  W  W9  1  0.00000000  0.00000000  0.38793136  1
  W  W10  1  0.33333300  0.33333300  0.38793136  1
  W  W11  1  0.66666700  0.66666700  0.38793136  1
  O  O12  1  0.33333300  0.00000000  0.61376895  1
  O  O13  1  0.66666700  0.00000000  0.55465675  1
  O  O14  1  0.33333300  0.66666700  0.55465675  1
  O  O15  1  0.00000000  0.33333300  0.55465675  1
  O  O16  1  0.66666700  0.33333300  0.61376895  1
  O  O17  1  0.00000000  0.66666700  0.61376895  1
