# generated using pymatgen
data_Te6Pt3(PbO2)4
_symmetry_space_group_name_H-M   'P 1'
_cell_length_a   6.86863577
_cell_length_b   6.86863577
_cell_length_c   30.00000000
_cell_angle_alpha   90.00000000
_cell_angle_beta   90.00000000
_cell_angle_gamma   60.00000221
_symmetry_Int_Tables_number   1
_chemical_formula_structural   Te6Pt3(PbO2)4
_chemical_formula_sum   'Te6 Pt3 Pb4 O8'
_cell_volume   1225.72451024
_cell_formula_units_Z   1
loop_
 _symmetry_equiv_pos_site_id
 _symmetry_equiv_pos_as_xyz
  1  'x, y, z'
loop_
 _atom_site_type_symbol
 _atom_site_label
 _atom_site_symmetry_multiplicity
 _atom_site_fract_x
 _atom_site_fract_y
 _atom_site_fract_z
 _atom_site_occupancy
  Te  Te0  1  0.99298268  0.34061423  0.45859308  1
  Te  Te1  1  0.34061423  0.66640310  0.45859308  1
  Te  Te2  1  0.00653347  0.66693685  0.36489014  1
  Te  Te3  1  0.66693685  0.32652967  0.36489014  1
  Te  Te4  1  0.32652967  0.00653347  0.36489014  1
  Te  Te5  1  0.66640310  0.99298268  0.45859308  1
  Pt  Pt6  1  0.66666700  0.66666700  0.40971287  1
  Pt  Pt7  1  0.33333300  0.33333300  0.41343847  1
  Pt  Pt8  1  0.00000000  0.00000000  0.41357504  1
  Pb  Pb9  1  0.00000000  0.00000000  0.58288728  1
  Pb  Pb10  1  0.50098955  0.49969204  0.58256353  1
  Pb  Pb11  1  0.49969204  0.99931842  0.58256353  1
  Pb  Pb12  1  0.99931842  0.50098955  0.58256353  1
  O  O13  1  0.33294008  0.83132521  0.61716823  1
  O  O14  1  0.83573371  0.33294008  0.61716823  1
  O  O15  1  0.66666700  0.66666700  0.54545266  1
  O  O16  1  0.66738837  0.16927768  0.54497690  1
  O  O17  1  0.16333495  0.66738837  0.54497690  1
  O  O18  1  0.16927768  0.16333495  0.54497690  1
  O  O19  1  0.33333300  0.33333300  0.61669102  1
  O  O20  1  0.83132521  0.83573371  0.61716823  1
