# generated using pymatgen
data_Hf3(Mo2Se7)2
_symmetry_space_group_name_H-M   'P 1'
_cell_length_a   6.58594553
_cell_length_b   6.58594500
_cell_length_c   30.00000000
_cell_angle_alpha   90.00000000
_cell_angle_beta   90.00000000
_cell_angle_gamma   59.99999763
_symmetry_Int_Tables_number   1
_chemical_formula_structural   Hf3(Mo2Se7)2
_chemical_formula_sum   'Hf3 Mo4 Se14'
_cell_volume   1126.90708675
_cell_formula_units_Z   1
loop_
 _symmetry_equiv_pos_site_id
 _symmetry_equiv_pos_as_xyz
  1  'x, y, z'
loop_
 _atom_site_type_symbol
 _atom_site_label
 _atom_site_symmetry_multiplicity
 _atom_site_fract_x
 _atom_site_fract_y
 _atom_site_fract_z
 _atom_site_occupancy
  Hf  Hf0  1  0.00000000  0.00000000  0.60749928  1
  Hf  Hf1  1  0.33333300  0.33333300  0.60775844  1
  Hf  Hf2  1  0.66666700  0.66666700  0.60870937  1
  Mo  Mo3  1  0.50103049  0.49915010  0.38823261  1
  Mo  Mo4  1  0.49915010  0.99981941  0.38823261  1
  Mo  Mo5  1  0.00000000  0.00000000  0.38818234  1
  Mo  Mo6  1  0.99981941  0.50103049  0.38823261  1
  Se  Se7  1  0.66686024  0.00106822  0.65971568  1
  Se  Se8  1  0.00106822  0.33207155  0.65971568  1
  Se  Se9  1  0.99851236  0.66643307  0.55646217  1
  Se  Se10  1  0.66663318  0.16501302  0.44389484  1
  Se  Se11  1  0.66643307  0.33505457  0.55646217  1
  Se  Se12  1  0.33505457  0.99851236  0.55646217  1
  Se  Se13  1  0.16590917  0.16751043  0.33239311  1
  Se  Se14  1  0.16751043  0.66658140  0.33239311  1
  Se  Se15  1  0.66658140  0.16590917  0.33239311  1
  Se  Se16  1  0.66666700  0.66666700  0.33240176  1
  Se  Se17  1  0.16501302  0.16835480  0.44389484  1
  Se  Se18  1  0.16835480  0.66663318  0.44389484  1
  Se  Se19  1  0.33207155  0.66686024  0.65971568  1
  Se  Se20  1  0.66666700  0.66666700  0.44415359  1
