# generated using pymatgen
data_Zr4Te6Pt3O8
_symmetry_space_group_name_H-M   'P 1'
_cell_length_a   6.74255200
_cell_length_b   6.74255259
_cell_length_c   30.00000000
_cell_angle_alpha   90.00000000
_cell_angle_beta   90.00000000
_cell_angle_gamma   60.00000290
_symmetry_Int_Tables_number   1
_chemical_formula_structural   Zr4Te6Pt3O8
_chemical_formula_sum   'Zr4 Te6 Pt3 O8'
_cell_volume   1181.13773924
_cell_formula_units_Z   1
loop_
 _symmetry_equiv_pos_site_id
 _symmetry_equiv_pos_as_xyz
  1  'x, y, z'
loop_
 _atom_site_type_symbol
 _atom_site_label
 _atom_site_symmetry_multiplicity
 _atom_site_fract_x
 _atom_site_fract_y
 _atom_site_fract_z
 _atom_site_occupancy
  Zr  Zr0  1  0.00040443  0.50028557  0.41266715  1
  Zr  Zr1  1  0.50028557  0.49931000  0.41266715  1
  Zr  Zr2  1  0.49931000  0.00040443  0.41266715  1
  Zr  Zr3  1  0.00000000  0.00000000  0.41176260  1
  Te  Te4  1  0.00383813  0.33480109  0.55228902  1
  Te  Te5  1  0.33480109  0.66136078  0.55228902  1
  Te  Te6  1  0.66136078  0.00383813  0.55228902  1
  Te  Te7  1  0.33213212  0.99708595  0.64931315  1
  Te  Te8  1  0.67078194  0.33213212  0.64931315  1
  Te  Te9  1  0.99708595  0.67078194  0.64931315  1
  Pt  Pt10  1  0.00000000  0.00000000  0.59982526  1
  Pt  Pt11  1  0.66666700  0.66666700  0.60034645  1
  Pt  Pt12  1  0.33333300  0.33333300  0.60183978  1
  O  O13  1  0.16728592  0.16746770  0.38154770  1
  O  O14  1  0.16746770  0.66524738  0.38154770  1
  O  O15  1  0.66524738  0.16728592  0.38154770  1
  O  O16  1  0.66666700  0.66666700  0.38205904  1
  O  O17  1  0.33165223  0.83543850  0.44290391  1
  O  O18  1  0.33333300  0.33333300  0.44343106  1
  O  O19  1  0.83543850  0.83290827  0.44290391  1
  O  O20  1  0.83290827  0.33165223  0.44290391  1
