# generated using pymatgen
data_HfSn(SeS)2
_symmetry_space_group_name_H-M   'P 1'
_cell_length_a   6.41422629
_cell_length_b   6.41422629
_cell_length_c   30.00000000
_cell_angle_alpha   90.00000000
_cell_angle_beta   90.00000000
_cell_angle_gamma   59.99999698
_symmetry_Int_Tables_number   1
_chemical_formula_structural   HfSn(SeS)2
_chemical_formula_sum   'Hf3 Sn3 Se6 S6'
_cell_volume   1068.90824897
_cell_formula_units_Z   3
loop_
 _symmetry_equiv_pos_site_id
 _symmetry_equiv_pos_as_xyz
  1  'x, y, z'
loop_
 _atom_site_type_symbol
 _atom_site_label
 _atom_site_symmetry_multiplicity
 _atom_site_fract_x
 _atom_site_fract_y
 _atom_site_fract_z
 _atom_site_occupancy
  Hf  Hf0  1  0.66666700  0.66666700  0.38617584  1
  Hf  Hf1  1  0.33333300  0.33333300  0.38617584  1
  Hf  Hf2  1  0.00000000  0.00000000  0.38617584  1
  Sn  Sn3  1  0.00000000  0.00000000  0.61464061  1
  Sn  Sn4  1  0.33333300  0.33333300  0.61464061  1
  Sn  Sn5  1  0.66666700  0.66666700  0.61464061  1
  Se  Se6  1  0.66666700  0.00000000  0.66956360  1
  Se  Se7  1  0.00000000  0.33333300  0.66956360  1
  Se  Se8  1  0.00000000  0.66666700  0.55979581  1
  Se  Se9  1  0.66666700  0.33333300  0.55979581  1
  Se  Se10  1  0.33333300  0.00000000  0.55979581  1
  Se  Se11  1  0.33333300  0.66666700  0.66956360  1
  S  S12  1  0.66666700  0.33333300  0.43690916  1
  S  S13  1  0.33333300  0.00000000  0.33546198  1
  S  S14  1  0.66666700  0.33333300  0.33546198  1
  S  S15  1  0.00000000  0.66666700  0.33546198  1
  S  S16  1  0.33333300  0.00000000  0.43690916  1
  S  S17  1  0.00000000  0.66666700  0.43690916  1
