# generated using pymatgen
data_Ti4Sn3S14
_symmetry_space_group_name_H-M   'P 1'
_cell_length_a   6.54410596
_cell_length_b   6.54410600
_cell_length_c   30.00000000
_cell_angle_alpha   90.00000000
_cell_angle_beta   90.00000000
_cell_angle_gamma   59.99999982
_symmetry_Int_Tables_number   1
_chemical_formula_structural   Ti4Sn3S14
_chemical_formula_sum   'Ti4 Sn3 S14'
_cell_volume   1112.63453005
_cell_formula_units_Z   1
loop_
 _symmetry_equiv_pos_site_id
 _symmetry_equiv_pos_as_xyz
  1  'x, y, z'
loop_
 _atom_site_type_symbol
 _atom_site_label
 _atom_site_symmetry_multiplicity
 _atom_site_fract_x
 _atom_site_fract_y
 _atom_site_fract_z
 _atom_site_occupancy
  Ti  Ti0  1  0.99966890  0.50059276  0.39636342  1
  Ti  Ti1  1  0.50060719  0.49975349  0.39636258  1
  Ti  Ti2  1  0.49977972  0.99965400  0.39636299  1
  Ti  Ti3  1  0.00003706  0.00000013  0.39080256  1
  Sn  Sn4  1  0.99999974  0.00000009  0.60251070  1
  Sn  Sn5  1  0.66666677  0.66666639  0.60324752  1
  Sn  Sn6  1  0.33333320  0.33333349  0.60251883  1
  S  S7  1  0.99782799  0.66671797  0.55459854  1
  S  S8  1  0.33173260  0.66665890  0.65103200  1
  S  S9  1  0.66665854  0.00160836  0.65103199  1
  S  S10  1  0.00160862  0.33173267  0.65103207  1
  S  S11  1  0.33545393  0.99782788  0.55459867  1
  S  S12  1  0.67058292  0.16297750  0.44513632  1
  S  S13  1  0.16892529  0.16897876  0.34366091  1
  S  S14  1  0.16897406  0.66215246  0.34366459  1
  S  S15  1  0.66220810  0.16886985  0.34366835  1
  S  S16  1  0.66667353  0.66666653  0.34535791  1
  S  S17  1  0.16301859  0.16648466  0.44513628  1
  S  S18  1  0.16648954  0.67053946  0.44513629  1
  S  S19  1  0.66671780  0.33545410  0.55459850  1
  S  S20  1  0.66667191  0.66666654  0.44707797  1
