# generated using pymatgen
data_ZrNiS4
_symmetry_space_group_name_H-M   'P 1'
_cell_length_a   3.46249420
_cell_length_b   3.46249400
_cell_length_c   30.00000000
_cell_angle_alpha   90.00000000
_cell_angle_beta   90.00000000
_cell_angle_gamma   60.00000195
_symmetry_Int_Tables_number   1
_chemical_formula_structural   ZrNiS4
_chemical_formula_sum   'Zr1 Ni1 S4'
_cell_volume   311.47986625
_cell_formula_units_Z   1
loop_
 _symmetry_equiv_pos_site_id
 _symmetry_equiv_pos_as_xyz
  1  'x, y, z'
loop_
 _atom_site_type_symbol
 _atom_site_label
 _atom_site_symmetry_multiplicity
 _atom_site_fract_x
 _atom_site_fract_y
 _atom_site_fract_z
 _atom_site_occupancy
  Zr  Zr0  1  0.00000000  0.00000000  0.39340371  1
  Ni  Ni1  1  0.00000000  0.00000000  0.59344981  1
  S  S2  1  0.33333300  0.33333300  0.55657721  1
  S  S3  1  0.66666700  0.66666700  0.63065282  1
  S  S4  1  0.33333300  0.33333300  0.33986707  1
  S  S5  1  0.33333300  0.33333300  0.44660138  1
