# generated using pymatgen
data_Te6Mo4Pt3Se8
_symmetry_space_group_name_H-M   'P 1'
_cell_length_a   6.79772069
_cell_length_b   6.79772069
_cell_length_c   30.00000000
_cell_angle_alpha   90.00000000
_cell_angle_beta   90.00000000
_cell_angle_gamma   59.99999332
_symmetry_Int_Tables_number   1
_chemical_formula_structural   Te6Mo4Pt3Se8
_chemical_formula_sum   'Te6 Mo4 Pt3 Se8'
_cell_volume   1200.54512527
_cell_formula_units_Z   1
loop_
 _symmetry_equiv_pos_site_id
 _symmetry_equiv_pos_as_xyz
  1  'x, y, z'
loop_
 _atom_site_type_symbol
 _atom_site_label
 _atom_site_symmetry_multiplicity
 _atom_site_fract_x
 _atom_site_fract_y
 _atom_site_fract_z
 _atom_site_occupancy
  Te  Te0  1  0.34005119  0.99381259  0.55453554  1
  Te  Te1  1  0.66613622  0.34005119  0.55453554  1
  Te  Te2  1  0.99381259  0.66613622  0.55453554  1
  Te  Te3  1  0.32807237  0.66708685  0.65033959  1
  Te  Te4  1  0.66708685  0.00484077  0.65033959  1
  Te  Te5  1  0.00484077  0.32807237  0.65033959  1
  Mo  Mo6  1  0.99974780  0.50177462  0.38768545  1
  Mo  Mo7  1  0.50177462  0.49847758  0.38768545  1
  Mo  Mo8  1  0.49847758  0.99974780  0.38768545  1
  Mo  Mo9  1  0.00000000  0.00000000  0.38770976  1
  Pt  Pt10  1  0.00000000  0.00000000  0.60120682  1
  Pt  Pt11  1  0.66666700  0.66666700  0.60403726  1
  Pt  Pt12  1  0.33333300  0.33333300  0.60151144  1
  Se  Se13  1  0.16519604  0.16808047  0.33310864  1
  Se  Se14  1  0.16808047  0.66672450  0.33310864  1
  Se  Se15  1  0.66672450  0.16519604  0.33310864  1
  Se  Se16  1  0.66666700  0.66666700  0.33309509  1
  Se  Se17  1  0.16378452  0.16979452  0.44215588  1
  Se  Se18  1  0.16979452  0.66642195  0.44215588  1
  Se  Se19  1  0.66642195  0.16378452  0.44215588  1
  Se  Se20  1  0.66666700  0.66666700  0.44251534  1
