# generated using pymatgen
data_Sn3Pt4(S3O4)2
_symmetry_space_group_name_H-M   'P 1'
_cell_length_a   6.34358000
_cell_length_b   6.34358049
_cell_length_c   30.00000000
_cell_angle_alpha   90.00000000
_cell_angle_beta   90.00000000
_cell_angle_gamma   60.00000257
_symmetry_Int_Tables_number   1
_chemical_formula_structural   Sn3Pt4(S3O4)2
_chemical_formula_sum   'Sn3 Pt4 S6 O8'
_cell_volume   1045.49214399
_cell_formula_units_Z   1
loop_
 _symmetry_equiv_pos_site_id
 _symmetry_equiv_pos_as_xyz
  1  'x, y, z'
loop_
 _atom_site_type_symbol
 _atom_site_label
 _atom_site_symmetry_multiplicity
 _atom_site_fract_x
 _atom_site_fract_y
 _atom_site_fract_z
 _atom_site_occupancy
  Sn  Sn0  1  0.66666700  0.66666700  0.40429575  1
  Sn  Sn1  1  0.33333300  0.33333300  0.40486342  1
  Sn  Sn2  1  0.00000000  0.00000000  0.40475031  1
  Pt  Pt3  1  0.00000000  0.00000000  0.58094622  1
  Pt  Pt4  1  0.99990723  0.50014216  0.58085716  1
  Pt  Pt5  1  0.49995061  0.99990723  0.58085716  1
  Pt  Pt6  1  0.50014216  0.49995061  0.58085716  1
  S  S7  1  0.33527373  0.99784533  0.45410248  1
  S  S8  1  0.66651892  0.00128428  0.35500126  1
  S  S9  1  0.33219680  0.66651892  0.35500126  1
  S  S10  1  0.00128428  0.33219680  0.35500126  1
  S  S11  1  0.99784533  0.66688094  0.45410248  1
  S  S12  1  0.66688094  0.33527373  0.45410248  1
  O  O13  1  0.33333300  0.33333300  0.61197823  1
  O  O14  1  0.33345818  0.83300185  0.61196200  1
  O  O15  1  0.66666700  0.66666700  0.54975028  1
  O  O16  1  0.66671219  0.16577161  0.54999070  1
  O  O17  1  0.16751720  0.66671219  0.54999070  1
  O  O18  1  0.16577161  0.16751720  0.54999070  1
  O  O19  1  0.83353898  0.33345818  0.61196200  1
  O  O20  1  0.83300185  0.83353898  0.61196200  1
