# generated using pymatgen
data_Hf3Ti4(S3O4)2
_symmetry_space_group_name_H-M   'P 1'
_cell_length_a   6.05433900
_cell_length_b   6.05433842
_cell_length_c   30.00000000
_cell_angle_alpha   90.00000000
_cell_angle_beta   90.00000000
_cell_angle_gamma   60.00000231
_symmetry_Int_Tables_number   1
_chemical_formula_structural   Hf3Ti4(S3O4)2
_chemical_formula_sum   'Hf3 Ti4 S6 O8'
_cell_volume   952.32530528
_cell_formula_units_Z   1
loop_
 _symmetry_equiv_pos_site_id
 _symmetry_equiv_pos_as_xyz
  1  'x, y, z'
loop_
 _atom_site_type_symbol
 _atom_site_label
 _atom_site_symmetry_multiplicity
 _atom_site_fract_x
 _atom_site_fract_y
 _atom_site_fract_z
 _atom_site_occupancy
  Hf  Hf0  1  0.66666700  0.66666700  0.39176932  1
  Hf  Hf1  1  0.33333300  0.33333300  0.40082177  1
  Hf  Hf2  1  0.00000000  0.00000000  0.40024301  1
  Ti  Ti3  1  0.00000000  0.00000000  0.59085316  1
  Ti  Ti4  1  0.00432410  0.50192659  0.58244688  1
  Ti  Ti5  1  0.49374931  0.00432410  0.58244688  1
  Ti  Ti6  1  0.50192659  0.49374931  0.58244688  1
  S  S7  1  0.99192103  0.34083902  0.44980264  1
  S  S8  1  0.66623736  0.00833083  0.34523506  1
  S  S9  1  0.32543181  0.66623736  0.34523506  1
  S  S10  1  0.00833083  0.32543181  0.34523506  1
  S  S11  1  0.66723995  0.99192103  0.44980264  1
  S  S12  1  0.34083902  0.66723995  0.44980264  1
  O  O13  1  0.33333300  0.33333300  0.61613680  1
  O  O14  1  0.33377333  0.83419304  0.61698764  1
  O  O15  1  0.66666700  0.66666700  0.55204484  1
  O  O16  1  0.66657963  0.16719338  0.55248849  1
  O  O17  1  0.16622798  0.66657963  0.55248849  1
  O  O18  1  0.16719338  0.16622798  0.55248849  1
  O  O19  1  0.83203263  0.33377333  0.61698764  1
  O  O20  1  0.83419304  0.83203263  0.61698764  1
