# generated using pymatgen
data_Pt3W4(S3O4)2
_symmetry_space_group_name_H-M   'P 1'
_cell_length_a   5.92632100
_cell_length_b   5.92632165
_cell_length_c   30.00000000
_cell_angle_alpha   90.00000000
_cell_angle_beta   90.00000000
_cell_angle_gamma   59.99999805
_symmetry_Int_Tables_number   1
_chemical_formula_structural   Pt3W4(S3O4)2
_chemical_formula_sum   'Pt3 W4 S6 O8'
_cell_volume   912.47771858
_cell_formula_units_Z   1
loop_
 _symmetry_equiv_pos_site_id
 _symmetry_equiv_pos_as_xyz
  1  'x, y, z'
loop_
 _atom_site_type_symbol
 _atom_site_label
 _atom_site_symmetry_multiplicity
 _atom_site_fract_x
 _atom_site_fract_y
 _atom_site_fract_z
 _atom_site_occupancy
  Pt  Pt0  1  0.00000000  0.00000000  0.59011309  1
  Pt  Pt1  1  0.33333300  0.33333300  0.59015854  1
  Pt  Pt2  1  0.66666700  0.66666700  0.59083078  1
  W  W3  1  0.49978999  0.50025907  0.40712412  1
  W  W4  1  0.50025907  0.99995094  0.40712412  1
  W  W5  1  0.00000000  0.00000000  0.40710063  1
  W  W6  1  0.99995094  0.49978999  0.40712412  1
  S  S7  1  0.66675934  0.33151706  0.63420346  1
  S  S8  1  0.00172361  0.66675934  0.63420346  1
  S  S9  1  0.66656529  0.99767834  0.54684592  1
  S  S10  1  0.33575637  0.66656529  0.54684592  1
  S  S11  1  0.99767834  0.33575637  0.54684592  1
  S  S12  1  0.33151706  0.00172361  0.63420346  1
  O  O13  1  0.66667203  0.16797310  0.44723918  1
  O  O14  1  0.16680759  0.16651402  0.36690796  1
  O  O15  1  0.16651402  0.66667938  0.36690796  1
  O  O16  1  0.66667938  0.16680759  0.36690796  1
  O  O17  1  0.66666700  0.66666700  0.36695337  1
  O  O18  1  0.16797310  0.16535587  0.44723918  1
  O  O19  1  0.16535587  0.66667203  0.44723918  1
  O  O20  1  0.66666700  0.66666700  0.44738070  1
