# generated using pymatgen
data_Ti4Te8(WO2)7
_symmetry_space_group_name_H-M   'P 1'
_cell_length_a   7.48368923
_cell_length_b   7.48368947
_cell_length_c   30.00000000
_cell_angle_alpha   90.00000000
_cell_angle_beta   90.00000000
_cell_angle_gamma   60.00000572
_symmetry_Int_Tables_number   1
_chemical_formula_structural   Ti4Te8(WO2)7
_chemical_formula_sum   'Ti4 Te8 W7 O14'
_cell_volume   1455.06841735
_cell_formula_units_Z   1
loop_
 _symmetry_equiv_pos_site_id
 _symmetry_equiv_pos_as_xyz
  1  'x, y, z'
loop_
 _atom_site_type_symbol
 _atom_site_label
 _atom_site_symmetry_multiplicity
 _atom_site_fract_x
 _atom_site_fract_y
 _atom_site_fract_z
 _atom_site_occupancy
  Ti  Ti0  1  0.00000000  0.00000000  0.60949246  1
  Ti  Ti1  1  0.99956213  0.49964112  0.61048149  1
  Ti  Ti2  1  0.50079675  0.99956213  0.61048149  1
  Ti  Ti3  1  0.49964112  0.50079675  0.61048149  1
  Te  Te4  1  0.16927852  0.16560967  0.55157764  1
  Te  Te5  1  0.16560967  0.66511281  0.55157764  1
  Te  Te6  1  0.66511281  0.16927852  0.55157764  1
  Te  Te7  1  0.66666700  0.66666700  0.55148531  1
  Te  Te8  1  0.16623868  0.16619202  0.66930947  1
  Te  Te9  1  0.16619202  0.66757031  0.66930947  1
  Te  Te10  1  0.66757031  0.16623868  0.66930947  1
  Te  Te11  1  0.66666700  0.66666700  0.66967815  1
  W  W12  1  0.71438600  0.85698962  0.40479897  1
  W  W13  1  0.85698962  0.42862438  0.40479897  1
  W  W14  1  0.57141747  0.28559703  0.40480581  1
  W  W15  1  0.42862438  0.71438600  0.40479897  1
  W  W16  1  0.28559703  0.14298550  0.40480581  1
  W  W17  1  0.00000000  0.00000000  0.40451720  1
  W  W18  1  0.14298550  0.57141747  0.40480581  1
  O  O19  1  0.90511763  0.61897494  0.44626193  1
  O  O20  1  0.47590743  0.90511763  0.44626193  1
  O  O21  1  0.61897494  0.47590743  0.44626193  1
  O  O22  1  0.19031813  0.76273951  0.44602408  1
  O  O23  1  0.33333300  0.33333300  0.44634564  1
  O  O24  1  0.04694235  0.19031813  0.44602408  1
  O  O25  1  0.90482562  0.61895196  0.36342609  1
  O  O26  1  0.47622242  0.90482562  0.36342609  1
  O  O27  1  0.61895196  0.47622242  0.36342609  1
  O  O28  1  0.19093184  0.76152109  0.36328381  1
  O  O29  1  0.33333300  0.33333300  0.36343439  1
  O  O30  1  0.04754707  0.19093184  0.36328381  1
  O  O31  1  0.76152109  0.04754707  0.36328381  1
  O  O32  1  0.76273951  0.04694235  0.44602408  1
