# generated using pymatgen
data_Te6Pd7S8
_symmetry_space_group_name_H-M   'P 1'
_cell_length_a   7.03266428
_cell_length_b   7.03266400
_cell_length_c   30.00000000
_cell_angle_alpha   90.00000000
_cell_angle_beta   90.00000000
_cell_angle_gamma   60.00000130
_symmetry_Int_Tables_number   1
_chemical_formula_structural   Te6Pd7S8
_chemical_formula_sum   'Te6 Pd7 S8'
_cell_volume   1284.96602944
_cell_formula_units_Z   1
loop_
 _symmetry_equiv_pos_site_id
 _symmetry_equiv_pos_as_xyz
  1  'x, y, z'
loop_
 _atom_site_type_symbol
 _atom_site_label
 _atom_site_symmetry_multiplicity
 _atom_site_fract_x
 _atom_site_fract_y
 _atom_site_fract_z
 _atom_site_occupancy
  Te  Te0  1  0.98952388  0.66712030  0.45867714  1
  Te  Te1  1  0.34335582  0.98952388  0.45867714  1
  Te  Te2  1  0.66765551  0.00948383  0.36852625  1
  Te  Te3  1  0.32286066  0.66765551  0.36852625  1
  Te  Te4  1  0.00948383  0.32286066  0.36852625  1
  Te  Te5  1  0.66712030  0.34335582  0.45867714  1
  Pd  Pd6  1  0.66666700  0.66666700  0.40974658  1
  Pd  Pd7  1  0.33333300  0.33333300  0.41563496  1
  Pd  Pd8  1  0.00000000  0.00000000  0.41663539  1
  Pd  Pd9  1  0.00000000  0.00000000  0.58545017  1
  Pd  Pd10  1  0.50501637  0.49566516  0.58660783  1
  Pd  Pd11  1  0.49566516  0.99931848  0.58660783  1
  Pd  Pd12  1  0.99931848  0.50501637  0.58660783  1
  S  S13  1  0.33048849  0.82727449  0.62871579  1
  S  S14  1  0.84223603  0.33048849  0.62871579  1
  S  S15  1  0.66666700  0.66666700  0.54388700  1
  S  S16  1  0.66548001  0.16331630  0.54389396  1
  S  S17  1  0.17120470  0.66548001  0.54389396  1
  S  S18  1  0.16331630  0.17120470  0.54389396  1
  S  S19  1  0.33333300  0.33333300  0.62876798  1
  S  S20  1  0.82727449  0.84223603  0.62871579  1
