# generated using pymatgen
data_Ti4Sn3(Se3S4)2
_symmetry_space_group_name_H-M   'P 1'
_cell_length_a   6.76092182
_cell_length_b   6.76092200
_cell_length_c   30.00000000
_cell_angle_alpha   90.00000000
_cell_angle_beta   90.00000000
_cell_angle_gamma   59.99999913
_symmetry_Int_Tables_number   1
_chemical_formula_structural   Ti4Sn3(Se3S4)2
_chemical_formula_sum   'Ti4 Sn3 Se6 S8'
_cell_volume   1187.58231690
_cell_formula_units_Z   1
loop_
 _symmetry_equiv_pos_site_id
 _symmetry_equiv_pos_as_xyz
  1  'x, y, z'
loop_
 _atom_site_type_symbol
 _atom_site_label
 _atom_site_symmetry_multiplicity
 _atom_site_fract_x
 _atom_site_fract_y
 _atom_site_fract_z
 _atom_site_occupancy
  Ti  Ti0  1  0.00022901  0.48926758  0.39763191  1
  Ti  Ti1  1  0.48926758  0.51050341  0.39763191  1
  Ti  Ti2  1  0.51050341  0.00022901  0.39763191  1
  Ti  Ti3  1  0.00000000  0.00000000  0.39775734  1
  Sn  Sn4  1  0.00000000  0.00000000  0.60688413  1
  Sn  Sn5  1  0.66666700  0.66666700  0.60679931  1
  Sn  Sn6  1  0.33333300  0.33333300  0.60744890  1
  Se  Se7  1  0.66492046  0.00212458  0.55440678  1
  Se  Se8  1  0.33358826  0.99859813  0.65979451  1
  Se  Se9  1  0.66781362  0.33358826  0.65979451  1
  Se  Se10  1  0.99859813  0.66781362  0.65979451  1
  Se  Se11  1  0.00212458  0.33295496  0.55440678  1
  Se  Se12  1  0.33295496  0.66492046  0.55440678  1
  S  S13  1  0.83129759  0.83590949  0.44539012  1
  S  S14  1  0.16300294  0.16997238  0.34958886  1
  S  S15  1  0.16997238  0.66702568  0.34958886  1
  S  S16  1  0.66702568  0.16300294  0.34958886  1
  S  S17  1  0.66666700  0.66666700  0.34999308  1
  S  S18  1  0.33279192  0.83129759  0.44539012  1
  S  S19  1  0.33333300  0.33333300  0.44557067  1
  S  S20  1  0.83590949  0.33279192  0.44539012  1
