# generated using pymatgen
data_Zr4Ti7(Te4O7)2
_symmetry_space_group_name_H-M   'P 1'
_cell_length_a   7.87017134
_cell_length_b   7.87017073
_cell_length_c   30.00000000
_cell_angle_alpha   90.00000000
_cell_angle_beta   90.00000000
_cell_angle_gamma   59.99999635
_symmetry_Int_Tables_number   1
_chemical_formula_structural   Zr4Ti7(Te4O7)2
_chemical_formula_sum   'Zr4 Ti7 Te8 O14'
_cell_volume   1609.23774819
_cell_formula_units_Z   1
loop_
 _symmetry_equiv_pos_site_id
 _symmetry_equiv_pos_as_xyz
  1  'x, y, z'
loop_
 _atom_site_type_symbol
 _atom_site_label
 _atom_site_symmetry_multiplicity
 _atom_site_fract_x
 _atom_site_fract_y
 _atom_site_fract_z
 _atom_site_occupancy
  Zr  Zr0  1  0.00000000  -0.00000000  0.38605250  1
  Zr  Zr1  1  0.49952872  0.00006689  0.38473027  1
  Zr  Zr2  1  0.50040439  0.49952872  0.38473027  1
  Zr  Zr3  1  0.00006689  0.50040439  0.38473027  1
  Ti  Ti4  1  0.85712049  0.42917594  0.58888926  1
  Ti  Ti5  1  0.00000000  -0.00000000  0.58572354  1
  Ti  Ti6  1  0.57171776  0.28411662  0.58726562  1
  Ti  Ti7  1  0.42917594  0.71370356  0.58888926  1
  Ti  Ti8  1  0.28411662  0.14416562  0.58726562  1
  Ti  Ti9  1  0.14416562  0.57171776  0.58726562  1
  Ti  Ti10  1  0.71370356  0.85712049  0.58888926  1
  Te  Te11  1  0.16778832  0.66556923  0.44682091  1
  Te  Te12  1  0.66666700  0.66666700  0.32251576  1
  Te  Te13  1  0.66783969  0.16570214  0.32301128  1
  Te  Te14  1  0.16645917  0.66783969  0.32301128  1
  Te  Te15  1  0.16570214  0.16645917  0.32301128  1
  Te  Te16  1  0.16664345  0.16778832  0.44682091  1
  Te  Te17  1  0.66666700  0.66666700  0.44616547  1
  Te  Te18  1  0.66556923  0.16664345  0.44682091  1
  O  O19  1  0.76245346  0.04840652  0.62027701  1
  O  O20  1  0.90612950  0.61910389  0.62102231  1
  O  O21  1  0.04840652  0.18914002  0.62027701  1
  O  O22  1  0.33333300  0.33333300  0.62021406  1
  O  O23  1  0.18914002  0.76245346  0.62027701  1
  O  O24  1  0.09405193  0.38169552  0.55464580  1
  O  O25  1  0.95102239  0.80950976  0.55431116  1
  O  O26  1  0.80950976  0.23946784  0.55431116  1
  O  O27  1  0.66666700  0.66666700  0.55562983  1
  O  O28  1  0.52425255  0.09405193  0.55464580  1
  O  O29  1  0.38169552  0.52425255  0.55464580  1
  O  O30  1  0.23946784  0.95102239  0.55431116  1
  O  O31  1  0.61910389  0.47476661  0.62102231  1
  O  O32  1  0.47476661  0.90612950  0.62102231  1
