# generated using pymatgen
data_Hf3(W2Se7)2
_symmetry_space_group_name_H-M   'P 1'
_cell_length_a   6.58523766
_cell_length_b   6.58523800
_cell_length_c   30.00000000
_cell_angle_alpha   90.00000000
_cell_angle_beta   90.00000000
_cell_angle_gamma   59.99999827
_symmetry_Int_Tables_number   1
_chemical_formula_structural   Hf3(W2Se7)2
_chemical_formula_sum   'Hf3 W4 Se14'
_cell_volume   1126.66501095
_cell_formula_units_Z   1
loop_
 _symmetry_equiv_pos_site_id
 _symmetry_equiv_pos_as_xyz
  1  'x, y, z'
loop_
 _atom_site_type_symbol
 _atom_site_label
 _atom_site_symmetry_multiplicity
 _atom_site_fract_x
 _atom_site_fract_y
 _atom_site_fract_z
 _atom_site_occupancy
  Hf  Hf0  1  0.00000000  0.00000000  0.60753453  1
  Hf  Hf1  1  0.33333300  0.33333300  0.60774837  1
  Hf  Hf2  1  0.66666700  0.66666700  0.60866991  1
  W  W3  1  0.49933846  0.50092477  0.38787845  1
  W  W4  1  0.50092477  0.99973677  0.38787845  1
  W  W5  1  0.00000000  0.00000000  0.38786399  1
  W  W6  1  0.99973677  0.49933846  0.38787845  1
  Se  Se7  1  0.66680863  0.33212584  0.65971762  1
  Se  Se8  1  0.00106553  0.66680863  0.65971762  1
  Se  Se9  1  0.66648072  0.99849230  0.55645032  1
  Se  Se10  1  0.66658249  0.16813640  0.44382698  1
  Se  Se11  1  0.33502698  0.66648072  0.55645032  1
  Se  Se12  1  0.99849230  0.33502698  0.55645032  1
  Se  Se13  1  0.16730164  0.16608918  0.33178183  1
  Se  Se14  1  0.16608918  0.66661018  0.33178183  1
  Se  Se15  1  0.66661018  0.16730164  0.33178183  1
  Se  Se16  1  0.66666700  0.66666700  0.33177182  1
  Se  Se17  1  0.16813640  0.16528211  0.44382698  1
  Se  Se18  1  0.16528211  0.66658249  0.44382698  1
  Se  Se19  1  0.33212584  0.00106553  0.65971762  1
  Se  Se20  1  0.66666700  0.66666700  0.44408977  1
