# generated using pymatgen
data_Zr3Te6(PdO2)4
_symmetry_space_group_name_H-M   'P 1'
_cell_length_a   6.48874028
_cell_length_b   6.48874028
_cell_length_c   30.00000000
_cell_angle_alpha   90.00000000
_cell_angle_beta   90.00000000
_cell_angle_gamma   59.99999716
_symmetry_Int_Tables_number   1
_chemical_formula_structural   Zr3Te6(PdO2)4
_chemical_formula_sum   'Zr3 Te6 Pd4 O8'
_cell_volume   1093.88749195
_cell_formula_units_Z   1
loop_
 _symmetry_equiv_pos_site_id
 _symmetry_equiv_pos_as_xyz
  1  'x, y, z'
loop_
 _atom_site_type_symbol
 _atom_site_label
 _atom_site_symmetry_multiplicity
 _atom_site_fract_x
 _atom_site_fract_y
 _atom_site_fract_z
 _atom_site_occupancy
  Zr  Zr0  1  0.66666700  0.66666700  0.39248840  1
  Zr  Zr1  1  0.33333300  0.33333300  0.39668544  1
  Zr  Zr2  1  0.00000000  0.00000000  0.39680775  1
  Te  Te3  1  0.99636218  0.66717422  0.45892050  1
  Te  Te4  1  0.33646359  0.99636218  0.45892050  1
  Te  Te5  1  0.00405296  0.66670840  0.33069194  1
  Te  Te6  1  0.66670840  0.32923864  0.33069194  1
  Te  Te7  1  0.32923864  0.00405296  0.33069194  1
  Te  Te8  1  0.66717422  0.33646359  0.45892050  1
  Pd  Pd9  1  0.00000000  0.00000000  0.57938958  1
  Pd  Pd10  1  0.49930351  0.50102988  0.57961936  1
  Pd  Pd11  1  0.50102988  0.99966661  0.57961936  1
  Pd  Pd12  1  0.99966661  0.49930351  0.57961936  1
  O  O13  1  0.33178641  0.83256271  0.60927573  1
  O  O14  1  0.83564987  0.33178641  0.60927573  1
  O  O15  1  0.66666700  0.66666700  0.54976818  1
  O  O16  1  0.66675098  0.16586866  0.54924403  1
  O  O17  1  0.16738136  0.66675098  0.54924403  1
  O  O18  1  0.16586866  0.16738136  0.54924403  1
  O  O19  1  0.33333300  0.33333300  0.60894398  1
  O  O20  1  0.83256271  0.83564987  0.60927573  1
