# generated using pymatgen
data_Hf4Te6Pd3S8
_symmetry_space_group_name_H-M   'P 1'
_cell_length_a   7.02232265
_cell_length_b   7.02232300
_cell_length_c   30.00000000
_cell_angle_alpha   90.00000000
_cell_angle_beta   90.00000000
_cell_angle_gamma   60.00000308
_symmetry_Int_Tables_number   1
_chemical_formula_structural   Hf4Te6Pd3S8
_chemical_formula_sum   'Hf4 Te6 Pd3 S8'
_cell_volume   1281.18982643
_cell_formula_units_Z   1
loop_
 _symmetry_equiv_pos_site_id
 _symmetry_equiv_pos_as_xyz
  1  'x, y, z'
loop_
 _atom_site_type_symbol
 _atom_site_label
 _atom_site_symmetry_multiplicity
 _atom_site_fract_x
 _atom_site_fract_y
 _atom_site_fract_z
 _atom_site_occupancy
  Hf  Hf0  1  0.99832807  0.50229671  0.39941133  1
  Hf  Hf1  1  0.50229671  0.49937522  0.39941133  1
  Hf  Hf2  1  0.49937522  0.99832807  0.39941133  1
  Hf  Hf3  1  0.00000000  0.00000000  0.40129905  1
  Te  Te4  1  0.34268272  0.99116374  0.54473240  1
  Te  Te5  1  0.66615353  0.34268272  0.54473240  1
  Te  Te6  1  0.99116374  0.66615353  0.54473240  1
  Te  Te7  1  0.32529521  0.66725832  0.63454652  1
  Te  Te8  1  0.66725832  0.00744646  0.63454652  1
  Te  Te9  1  0.00744646  0.32529521  0.63454652  1
  Pd  Pd10  1  0.00000000  0.00000000  0.58721252  1
  Pd  Pd11  1  0.66666700  0.66666700  0.59268397  1
  Pd  Pd12  1  0.33333300  0.33333300  0.58757043  1
  S  S13  1  0.16571823  0.16707499  0.34894820  1
  S  S14  1  0.16707499  0.66720778  0.34894820  1
  S  S15  1  0.66720778  0.16571823  0.34894820  1
  S  S16  1  0.66666700  0.66666700  0.34807481  1
  S  S17  1  0.16167594  0.17178966  0.45280146  1
  S  S18  1  0.17178966  0.66653540  0.45280146  1
  S  S19  1  0.66653540  0.16167594  0.45280146  1
  S  S20  1  0.66666700  0.66666700  0.45279047  1
