# generated using pymatgen
data_Hf4Cr7(Te4S7)2
_symmetry_space_group_name_H-M   'P 1'
_cell_length_a   7.93842141
_cell_length_b   7.93842114
_cell_length_c   30.00000000
_cell_angle_alpha   90.00000000
_cell_angle_beta   90.00000000
_cell_angle_gamma   59.99999935
_symmetry_Int_Tables_number   1
_chemical_formula_structural   Hf4Cr7(Te4S7)2
_chemical_formula_sum   'Hf4 Cr7 Te8 S14'
_cell_volume   1637.26948618
_cell_formula_units_Z   1
loop_
 _symmetry_equiv_pos_site_id
 _symmetry_equiv_pos_as_xyz
  1  'x, y, z'
loop_
 _atom_site_type_symbol
 _atom_site_label
 _atom_site_symmetry_multiplicity
 _atom_site_fract_x
 _atom_site_fract_y
 _atom_site_fract_z
 _atom_site_occupancy
  Hf  Hf0  1  0.00000000  0.00000000  0.38227732  1
  Hf  Hf1  1  0.50108830  0.99991670  0.38003647  1
  Hf  Hf2  1  0.49899500  0.50108830  0.38003647  1
  Hf  Hf3  1  0.99991670  0.49899500  0.38003647  1
  Cr  Cr4  1  0.71435020  0.85685271  0.60719796  1
  Cr  Cr5  1  0.00000000  0.00000000  0.60765607  1
  Cr  Cr6  1  0.42879710  0.71435020  0.60719796  1
  Cr  Cr7  1  0.57143910  0.28540420  0.60708555  1
  Cr  Cr8  1  0.14315670  0.57143910  0.60708555  1
  Cr  Cr9  1  0.28540420  0.14315670  0.60708555  1
  Cr  Cr10  1  0.85685271  0.42879710  0.60719796  1
  Te  Te11  1  0.16539010  0.66397024  0.44098387  1
  Te  Te12  1  0.66666700  0.66666700  0.31940112  1
  Te  Te13  1  0.66873628  0.16613563  0.32003057  1
  Te  Te14  1  0.16512909  0.66873628  0.32003057  1
  Te  Te15  1  0.16613563  0.16512909  0.32003057  1
  Te  Te16  1  0.17064066  0.16539010  0.44098387  1
  Te  Te17  1  0.66666700  0.66666700  0.44052270  1
  Te  Te18  1  0.66397024  0.17064066  0.44098387  1
  S  S19  1  0.47598198  0.90502653  0.65639398  1
  S  S20  1  0.90502653  0.61899149  0.65639398  1
  S  S21  1  0.76126437  0.04760853  0.65663133  1
  S  S22  1  0.33333300  0.33333300  0.65629422  1
  S  S23  1  0.04760853  0.19112710  0.65663133  1
  S  S24  1  0.76310034  0.04642581  0.55830919  1
  S  S25  1  0.90518592  0.61892672  0.55784078  1
  S  S26  1  0.47588735  0.90518592  0.55784078  1
  S  S27  1  0.61892672  0.47588735  0.55784078  1
  S  S28  1  0.19047385  0.76310034  0.55830919  1
  S  S29  1  0.33333300  0.33333300  0.55762546  1
  S  S30  1  0.04642581  0.19047385  0.55830919  1
  S  S31  1  0.61899149  0.47598198  0.65639398  1
  S  S32  1  0.19112710  0.76126437  0.65663133  1
