# generated using pymatgen
data_HfSn(TeS)2
_symmetry_space_group_name_H-M   'P 1'
_cell_length_a   3.80273379
_cell_length_b   3.80273300
_cell_length_c   30.00000000
_cell_angle_alpha   90.00000000
_cell_angle_beta   90.00000000
_cell_angle_gamma   59.99999813
_symmetry_Int_Tables_number   1
_chemical_formula_structural   HfSn(TeS)2
_chemical_formula_sum   'Hf1 Sn1 Te2 S2'
_cell_volume   375.70211072
_cell_formula_units_Z   1
loop_
 _symmetry_equiv_pos_site_id
 _symmetry_equiv_pos_as_xyz
  1  'x, y, z'
loop_
 _atom_site_type_symbol
 _atom_site_label
 _atom_site_symmetry_multiplicity
 _atom_site_fract_x
 _atom_site_fract_y
 _atom_site_fract_z
 _atom_site_occupancy
  Hf  Hf0  1  0.00000000  0.00000000  0.37507703  1
  Sn  Sn1  1  0.00000000  0.00000000  0.61267395  1
  Te  Te2  1  0.33333300  0.33333300  0.31252044  1
  Te  Te3  1  0.33333300  0.33333300  0.43730700  1
  S  S4  1  0.33333300  0.33333300  0.56459475  1
  S  S5  1  0.66666700  0.66666700  0.66065082  1
