# generated using pymatgen
data_ZrPt(SeS)2
_symmetry_space_group_name_H-M   'P 1'
_cell_length_a   3.65861429
_cell_length_b   3.65861400
_cell_length_c   30.00000000
_cell_angle_alpha   90.00000000
_cell_angle_beta   90.00000000
_cell_angle_gamma   60.00000261
_symmetry_Int_Tables_number   1
_chemical_formula_structural   ZrPt(SeS)2
_chemical_formula_sum   'Zr1 Pt1 Se2 S2'
_cell_volume   347.76439512
_cell_formula_units_Z   1
loop_
 _symmetry_equiv_pos_site_id
 _symmetry_equiv_pos_as_xyz
  1  'x, y, z'
loop_
 _atom_site_type_symbol
 _atom_site_label
 _atom_site_symmetry_multiplicity
 _atom_site_fract_x
 _atom_site_fract_y
 _atom_site_fract_z
 _atom_site_occupancy
  Zr  Zr0  1  0.00000000  0.00000000  0.38777796  1
  Pt  Pt1  1  0.00000000  0.00000000  0.60361786  1
  Se  Se2  1  0.33333300  0.33333300  0.55844560  1
  Se  Se3  1  0.66666700  0.66666700  0.64896656  1
  S  S4  1  0.33333300  0.33333300  0.33605246  1
  S  S5  1  0.33333300  0.33333300  0.43931855  1
