# generated using pymatgen
data_CrTeSe
_symmetry_space_group_name_H-M   'P 1'
_cell_length_a   5.78533900
_cell_length_b   5.78533915
_cell_length_c   30.00000000
_cell_angle_alpha   90.00000000
_cell_angle_beta   90.00000000
_cell_angle_gamma   60.00000655
_symmetry_Int_Tables_number   1
_chemical_formula_structural   CrTeSe
_chemical_formula_sum   'Cr6 Te6 Se6'
_cell_volume   869.58001530
_cell_formula_units_Z   6
loop_
 _symmetry_equiv_pos_site_id
 _symmetry_equiv_pos_as_xyz
  1  'x, y, z'
loop_
 _atom_site_type_symbol
 _atom_site_label
 _atom_site_symmetry_multiplicity
 _atom_site_fract_x
 _atom_site_fract_y
 _atom_site_fract_z
 _atom_site_occupancy
  Cr  Cr0  1  0.00000000  0.00000000  0.61073700  1
  Cr  Cr1  1  0.33333300  0.33333300  0.61073700  1
  Cr  Cr2  1  0.66666700  0.66666700  0.61073700  1
  Cr  Cr3  1  0.66666700  0.66666700  0.38481576  1
  Cr  Cr4  1  0.33333300  0.33333300  0.38481576  1
  Cr  Cr5  1  0.00000000  0.00000000  0.38481576  1
  Te  Te6  1  0.00000000  0.33333300  0.44297025  1
  Te  Te7  1  0.66666700  0.00000000  0.32661071  1
  Te  Te8  1  0.33333300  0.66666700  0.32661071  1
  Te  Te9  1  0.00000000  0.33333300  0.32661071  1
  Te  Te10  1  0.66666700  0.00000000  0.44297025  1
  Te  Te11  1  0.33333300  0.66666700  0.44297025  1
  Se  Se12  1  0.66666700  0.33333300  0.66178406  1
  Se  Se13  1  0.33333300  0.00000000  0.66178406  1
  Se  Se14  1  0.00000000  0.66666700  0.55983521  1
  Se  Se15  1  0.66666700  0.33333300  0.55983521  1
  Se  Se16  1  0.33333300  0.00000000  0.55983521  1
  Se  Se17  1  0.00000000  0.66666700  0.66178406  1
