# generated using pymatgen
data_Ge4Te6W3O8
_symmetry_space_group_name_H-M   'P 1'
_cell_length_a   5.97452128
_cell_length_b   5.97452128
_cell_length_c   30.00000000
_cell_angle_alpha   90.00000000
_cell_angle_beta   90.00000000
_cell_angle_gamma   60.00000794
_symmetry_Int_Tables_number   1
_chemical_formula_structural   Ge4Te6W3O8
_chemical_formula_sum   'Ge4 Te6 W3 O8'
_cell_volume   927.38089834
_cell_formula_units_Z   1
loop_
 _symmetry_equiv_pos_site_id
 _symmetry_equiv_pos_as_xyz
  1  'x, y, z'
loop_
 _atom_site_type_symbol
 _atom_site_label
 _atom_site_symmetry_multiplicity
 _atom_site_fract_x
 _atom_site_fract_y
 _atom_site_fract_z
 _atom_site_occupancy
  Ge  Ge0  1  0.00001675  0.00000001  0.58873533  1
  Ge  Ge1  1  0.99992252  0.50013546  0.58857451  1
  Ge  Ge2  1  0.50000217  0.99991349  0.58857356  1
  Ge  Ge3  1  0.50014471  0.49995040  0.58857238  1
  Te  Te4  1  0.33436718  0.99901698  0.44624342  1
  Te  Te5  1  0.00031899  0.66669533  0.32301244  1
  Te  Te6  1  0.66669517  0.33298567  0.32301247  1
  Te  Te7  1  0.33298551  0.00031902  0.32301245  1
  Te  Te8  1  0.66661548  0.33436713  0.44624348  1
  Te  Te9  1  0.99901713  0.66661567  0.44624354  1
  W  W10  1  0.99999983  0.99999992  0.38472541  1
  W  W11  1  0.33333307  0.33333347  0.38471110  1
  W  W12  1  0.66666675  0.66666656  0.38449824  1
  O  O13  1  0.33372134  0.83352982  0.62041874  1
  O  O14  1  0.83280617  0.33368211  0.62041781  1
  O  O15  1  0.66667959  0.66666670  0.55621620  1
  O  O16  1  0.66692574  0.16572263  0.55645139  1
  O  O17  1  0.16740850  0.66688945  0.55645057  1
  O  O18  1  0.16575859  0.16738912  0.55644979  1
  O  O19  1  0.33334569  0.33333323  0.62034832  1
  O  O20  1  0.83356912  0.83278782  0.62041684  1
