# generated using pymatgen
data_Zr4Mo7(S4O7)2
_symmetry_space_group_name_H-M   'P 1'
_cell_length_a   7.30064506
_cell_length_b   7.30064490
_cell_length_c   30.00000000
_cell_angle_alpha   90.00000000
_cell_angle_beta   90.00000000
_cell_angle_gamma   59.99999918
_symmetry_Int_Tables_number   1
_chemical_formula_structural   Zr4Mo7(S4O7)2
_chemical_formula_sum   'Zr4 Mo7 S8 O14'
_cell_volume   1384.75946507
_cell_formula_units_Z   1
loop_
 _symmetry_equiv_pos_site_id
 _symmetry_equiv_pos_as_xyz
  1  'x, y, z'
loop_
 _atom_site_type_symbol
 _atom_site_label
 _atom_site_symmetry_multiplicity
 _atom_site_fract_x
 _atom_site_fract_y
 _atom_site_fract_z
 _atom_site_occupancy
  Zr  Zr0  1  0.00000000  0.00000000  0.39181887  1
  Zr  Zr1  1  0.50003708  0.99944184  0.40388614  1
  Zr  Zr2  1  0.50052108  0.50003708  0.40388614  1
  Zr  Zr3  1  0.99944184  0.50052108  0.40388614  1
  Mo  Mo4  1  0.85699853  0.71438629  0.59262820  1
  Mo  Mo5  1  0.00000000  0.00000000  0.59288038  1
  Mo  Mo6  1  0.42861518  0.85699853  0.59262820  1
  Mo  Mo7  1  0.57145418  0.14301119  0.59260101  1
  Mo  Mo8  1  0.28553463  0.57145418  0.59260101  1
  Mo  Mo9  1  0.14301119  0.28553463  0.59260101  1
  Mo  Mo10  1  0.71438629  0.42861518  0.59262820  1
  S  S11  1  0.16388595  0.67380919  0.45119348  1
  S  S12  1  0.66666700  0.66666700  0.35172466  1
  S  S13  1  0.65787164  0.17099289  0.34829250  1
  S  S14  1  0.17113646  0.65787164  0.34829250  1
  S  S15  1  0.17099289  0.17113646  0.34829250  1
  S  S16  1  0.16230587  0.16388595  0.45119348  1
  S  S17  1  0.66666700  0.66666700  0.45497293  1
  S  S18  1  0.67380919  0.16230587  0.45119348  1
  O  O19  1  0.61896700  0.90486633  0.63448581  1
  O  O20  1  0.90486633  0.47616667  0.63448581  1
  O  O21  1  0.04753765  0.76158498  0.63461273  1
  O  O22  1  0.33333300  0.33333300  0.63445307  1
  O  O23  1  0.19087737  0.04753765  0.63461273  1
  O  O24  1  0.04699966  0.76259678  0.55092703  1
  O  O25  1  0.90514581  0.47590903  0.55071565  1
  O  O26  1  0.61894515  0.90514581  0.55071565  1
  O  O27  1  0.76259678  0.19040356  0.55092703  1
  O  O28  1  0.47590903  0.61894515  0.55071565  1
  O  O29  1  0.33333300  0.33333300  0.55060144  1
  O  O30  1  0.19040356  0.04699966  0.55092703  1
  O  O31  1  0.76158498  0.19087737  0.63461273  1
  O  O32  1  0.47616667  0.61896700  0.63448581  1
