# generated using pymatgen
data_Ti4Sn3Se14
_symmetry_space_group_name_H-M   'P 1'
_cell_length_a   6.83838104
_cell_length_b   6.83838100
_cell_length_c   30.00000000
_cell_angle_alpha   90.00000000
_cell_angle_beta   90.00000000
_cell_angle_gamma   60.00000502
_symmetry_Int_Tables_number   1
_chemical_formula_structural   Ti4Sn3Se14
_chemical_formula_sum   'Ti4 Sn3 Se14'
_cell_volume   1214.95026056
_cell_formula_units_Z   1
loop_
 _symmetry_equiv_pos_site_id
 _symmetry_equiv_pos_as_xyz
  1  'x, y, z'
loop_
 _atom_site_type_symbol
 _atom_site_label
 _atom_site_symmetry_multiplicity
 _atom_site_fract_x
 _atom_site_fract_y
 _atom_site_fract_z
 _atom_site_occupancy
  Ti  Ti0  1  0.99968746  0.50109790  0.39085567  1
  Ti  Ti1  1  0.50109790  0.49921464  0.39085567  1
  Ti  Ti2  1  0.49921464  0.99968746  0.39085567  1
  Ti  Ti3  1  0.00000000  0.00000000  0.39056315  1
  Sn  Sn4  1  0.00000000  0.00000000  0.60716342  1
  Sn  Sn5  1  0.66666700  0.66666700  0.60815928  1
  Sn  Sn6  1  0.33333300  0.33333300  0.60705695  1
  Se  Se7  1  0.99653997  0.66702911  0.55527383  1
  Se  Se8  1  0.33089915  0.66644039  0.65967423  1
  Se  Se9  1  0.66644039  0.00266047  0.65967423  1
  Se  Se10  1  0.00266047  0.33089915  0.65967423  1
  Se  Se11  1  0.33643093  0.99653997  0.55527383  1
  Se  Se12  1  0.66675914  0.16303562  0.44486379  1
  Se  Se13  1  0.16673235  0.16679152  0.33608794  1
  Se  Se14  1  0.16679152  0.66647712  0.33608794  1
  Se  Se15  1  0.66647712  0.16673235  0.33608794  1
  Se  Se16  1  0.66666700  0.66666700  0.33631203  1
  Se  Se17  1  0.16303562  0.17020624  0.44486379  1
  Se  Se18  1  0.17020624  0.66675914  0.44486379  1
  Se  Se19  1  0.66702911  0.33643093  0.55527383  1
  Se  Se20  1  0.66666700  0.66666700  0.44540082  1
