# generated using pymatgen
data_Zr7(S3O4)2
_symmetry_space_group_name_H-M   'P 1'
_cell_length_a   6.45158345
_cell_length_b   6.45158300
_cell_length_c   30.00000000
_cell_angle_alpha   90.00000000
_cell_angle_beta   90.00000000
_cell_angle_gamma   59.99999716
_symmetry_Int_Tables_number   1
_chemical_formula_structural   Zr7(S3O4)2
_chemical_formula_sum   'Zr7 S6 O8'
_cell_volume   1081.39531029
_cell_formula_units_Z   1
loop_
 _symmetry_equiv_pos_site_id
 _symmetry_equiv_pos_as_xyz
  1  'x, y, z'
loop_
 _atom_site_type_symbol
 _atom_site_label
 _atom_site_symmetry_multiplicity
 _atom_site_fract_x
 _atom_site_fract_y
 _atom_site_fract_z
 _atom_site_occupancy
  Zr  Zr0  1  0.00000000  0.00000000  0.58575573  1
  Zr  Zr1  1  0.99999030  0.49992911  0.58415892  1
  Zr  Zr2  1  0.50008060  0.99999030  0.58415892  1
  Zr  Zr3  1  0.49992911  0.50008060  0.58415892  1
  Zr  Zr4  1  0.66666700  0.66666700  0.40115852  1
  Zr  Zr5  1  0.33333300  0.33333300  0.40148199  1
  Zr  Zr6  1  0.00000000  0.00000000  0.40135194  1
  S  S7  1  0.33381785  0.66678929  0.44874205  1
  S  S8  1  0.00044642  0.66660446  0.35363954  1
  S  S9  1  0.66660446  0.33294912  0.35363954  1
  S  S10  1  0.33294912  0.00044642  0.35363954  1
  S  S11  1  0.99939286  0.33381785  0.44874205  1
  S  S12  1  0.66678929  0.99939286  0.44874205  1
  O  O13  1  0.33333300  0.33333300  0.61715706  1
  O  O14  1  0.33504148  0.83250971  0.61764584  1
  O  O15  1  0.66666700  0.66666700  0.55126693  1
  O  O16  1  0.66842745  0.16649748  0.55187526  1
  O  O17  1  0.16507607  0.66842745  0.55187526  1
  O  O18  1  0.16649748  0.16507607  0.55187526  1
  O  O19  1  0.83244781  0.33504148  0.61764584  1
  O  O20  1  0.83250971  0.83244781  0.61764584  1
