# generated using pymatgen
data_TeWSe
_symmetry_space_group_name_H-M   'P 1'
_cell_length_a   5.94883000
_cell_length_b   5.94883008
_cell_length_c   30.00000000
_cell_angle_alpha   90.00000000
_cell_angle_beta   90.00000000
_cell_angle_gamma   60.00000047
_symmetry_Int_Tables_number   1
_chemical_formula_structural   TeWSe
_chemical_formula_sum   'Te6 W6 Se6'
_cell_volume   919.42225349
_cell_formula_units_Z   6
loop_
 _symmetry_equiv_pos_site_id
 _symmetry_equiv_pos_as_xyz
  1  'x, y, z'
loop_
 _atom_site_type_symbol
 _atom_site_label
 _atom_site_symmetry_multiplicity
 _atom_site_fract_x
 _atom_site_fract_y
 _atom_site_fract_z
 _atom_site_occupancy
  Te  Te0  1  0.66666700  0.00000000  0.44457592  1
  Te  Te1  1  0.00000000  0.33333300  0.44457592  1
  Te  Te2  1  0.66666700  0.00000000  0.32090808  1
  Te  Te3  1  0.33333300  0.66666700  0.32090808  1
  Te  Te4  1  0.00000000  0.33333300  0.32090808  1
  Te  Te5  1  0.33333300  0.66666700  0.44457592  1
  W  W6  1  0.66666700  0.66666700  0.38281505  1
  W  W7  1  0.33333300  0.33333300  0.38281505  1
  W  W8  1  0.00000000  0.00000000  0.38281505  1
  W  W9  1  0.00000000  0.00000000  0.61277025  1
  W  W10  1  0.66666700  0.66666700  0.61277025  1
  W  W11  1  0.33333300  0.33333300  0.61277025  1
  Se  Se12  1  0.33333300  0.00000000  0.66719264  1
  Se  Se13  1  0.00000000  0.66666700  0.55848406  1
  Se  Se14  1  0.66666700  0.33333300  0.55848406  1
  Se  Se15  1  0.33333300  0.00000000  0.55848406  1
  Se  Se16  1  0.66666700  0.33333300  0.66719264  1
  Se  Se17  1  0.00000000  0.66666700  0.66719264  1
