# generated using pymatgen
data_Ti3Pd4(Se3O4)2
_symmetry_space_group_name_H-M   'P 1'
_cell_length_a   6.11844406
_cell_length_b   6.11844400
_cell_length_c   30.00000000
_cell_angle_alpha   90.00000000
_cell_angle_beta   90.00000000
_cell_angle_gamma   60.00000030
_symmetry_Int_Tables_number   1
_chemical_formula_structural   Ti3Pd4(Se3O4)2
_chemical_formula_sum   'Ti3 Pd4 Se6 O8'
_cell_volume   972.59911618
_cell_formula_units_Z   1
loop_
 _symmetry_equiv_pos_site_id
 _symmetry_equiv_pos_as_xyz
  1  'x, y, z'
loop_
 _atom_site_type_symbol
 _atom_site_label
 _atom_site_symmetry_multiplicity
 _atom_site_fract_x
 _atom_site_fract_y
 _atom_site_fract_z
 _atom_site_occupancy
  Ti  Ti0  1  0.66666700  0.66666700  0.39640604  1
  Ti  Ti1  1  0.33333300  0.33333300  0.40471149  1
  Ti  Ti2  1  0.00000000  0.00000000  0.40609044  1
  Pd  Pd3  1  0.00000000  0.00000000  0.58005896  1
  Pd  Pd4  1  0.99986941  0.50011218  0.58011457  1
  Pd  Pd5  1  0.50001841  0.99986941  0.58011457  1
  Pd  Pd6  1  0.50011218  0.50001841  0.58011457  1
  Se  Se7  1  0.34026119  0.99375887  0.45526454  1
  Se  Se8  1  0.00639433  0.66722246  0.34886127  1
  Se  Se9  1  0.66722246  0.32638321  0.34886127  1
  Se  Se10  1  0.32638321  0.00639433  0.34886127  1
  Se  Se11  1  0.99375887  0.66597994  0.45526454  1
  Se  Se12  1  0.66597994  0.34026119  0.45526454  1
  O  O13  1  0.33333300  0.33333300  0.61310612  1
  O  O14  1  0.33275463  0.83253008  0.61315880  1
  O  O15  1  0.66666700  0.66666700  0.54691485  1
  O  O16  1  0.66651956  0.16581374  0.54691753  1
  O  O17  1  0.16766769  0.66651956  0.54691753  1
  O  O18  1  0.16581374  0.16766769  0.54691753  1
  O  O19  1  0.83471429  0.33275463  0.61315880  1
  O  O20  1  0.83253008  0.83471429  0.61315880  1
