# generated using pymatgen
data_Cr4Te14Pd3
_symmetry_space_group_name_H-M   'P 1'
_cell_length_a   6.94943700
_cell_length_b   6.94943726
_cell_length_c   30.00000000
_cell_angle_alpha   90.00000000
_cell_angle_beta   90.00000000
_cell_angle_gamma   59.99999650
_symmetry_Int_Tables_number   1
_chemical_formula_structural   Cr4Te14Pd3
_chemical_formula_sum   'Cr4 Te14 Pd3'
_cell_volume   1254.73245591
_cell_formula_units_Z   1
loop_
 _symmetry_equiv_pos_site_id
 _symmetry_equiv_pos_as_xyz
  1  'x, y, z'
loop_
 _atom_site_type_symbol
 _atom_site_label
 _atom_site_symmetry_multiplicity
 _atom_site_fract_x
 _atom_site_fract_y
 _atom_site_fract_z
 _atom_site_occupancy
  Cr  Cr0  1  0.99968671  0.49803029  0.38603060  1
  Cr  Cr1  1  0.49803029  0.50228300  0.38603060  1
  Cr  Cr2  1  0.50228300  0.99968671  0.38603060  1
  Cr  Cr3  1  0.00000000  0.00000000  0.38615497  1
  Te  Te4  1  0.16302693  0.66614165  0.44356893  1
  Te  Te5  1  0.17083242  0.16302693  0.44356893  1
  Te  Te6  1  0.66666700  0.66666700  0.32821808  1
  Te  Te7  1  0.66668761  0.16795588  0.32830869  1
  Te  Te8  1  0.16535751  0.66668761  0.32830869  1
  Te  Te9  1  0.16795588  0.16535751  0.32830869  1
  Te  Te10  1  0.66666700  0.66666700  0.44404014  1
  Te  Te11  1  0.00740917  0.66747023  0.64886036  1
  Te  Te12  1  0.66747023  0.32512060  0.64886036  1
  Te  Te13  1  0.32512060  0.00740917  0.64886036  1
  Te  Te14  1  0.66574260  0.99068322  0.55669723  1
  Te  Te15  1  0.34357418  0.66574260  0.55669723  1
  Te  Te16  1  0.99068322  0.34357418  0.55669723  1
  Te  Te17  1  0.66614165  0.17083242  0.44356893  1
  Pd  Pd18  1  0.66666700  0.66666700  0.60540894  1
  Pd  Pd19  1  0.33333300  0.33333300  0.60124342  1
  Pd  Pd20  1  0.00000000  0.00000000  0.60068801  1
