# generated using pymatgen
data_Hf3(Te7W2)2
_symmetry_space_group_name_H-M   'P 1'
_cell_length_a   6.93581166
_cell_length_b   6.93581200
_cell_length_c   30.00000000
_cell_angle_alpha   90.00000000
_cell_angle_beta   90.00000000
_cell_angle_gamma   59.99999840
_symmetry_Int_Tables_number   1
_chemical_formula_structural   Hf3(Te7W2)2
_chemical_formula_sum   'Hf3 Te14 W4'
_cell_volume   1249.81716196
_cell_formula_units_Z   1
loop_
 _symmetry_equiv_pos_site_id
 _symmetry_equiv_pos_as_xyz
  1  'x, y, z'
loop_
 _atom_site_type_symbol
 _atom_site_label
 _atom_site_symmetry_multiplicity
 _atom_site_fract_x
 _atom_site_fract_y
 _atom_site_fract_z
 _atom_site_occupancy
  Hf  Hf0  1  0.00000000  0.00000000  0.61732704  1
  Hf  Hf1  1  0.33333300  0.33333300  0.61814064  1
  Hf  Hf2  1  0.66666700  0.66666700  0.62890393  1
  Te  Te3  1  0.16412495  0.66648075  0.44135239  1
  Te  Te4  1  0.16939530  0.16412495  0.44135239  1
  Te  Te5  1  0.66666700  0.66666700  0.31886817  1
  Te  Te6  1  0.66666819  0.16788113  0.31882056  1
  Te  Te7  1  0.16545168  0.66666819  0.31882056  1
  Te  Te8  1  0.16788113  0.16545168  0.31882056  1
  Te  Te9  1  0.66648075  0.16939530  0.44135239  1
  Te  Te10  1  0.66666700  0.66666700  0.44146712  1
  Te  Te11  1  0.66737570  0.01130072  0.68178119  1
  Te  Te12  1  0.32132358  0.66737570  0.68178119  1
  Te  Te13  1  0.01130072  0.32132358  0.68178119  1
  Te  Te14  1  0.66571264  0.98783707  0.56135978  1
  Te  Te15  1  0.34645029  0.66571264  0.56135978  1
  Te  Te16  1  0.98783707  0.34645029  0.56135978  1
  W  W17  1  0.50167086  0.00025777  0.38008413  1
  W  W18  1  0.49807137  0.50167086  0.38008413  1
  W  W19  1  0.00000000  0.00000000  0.38011395  1
  W  W20  1  0.00025777  0.49807137  0.38008413  1
