# generated using pymatgen
data_Hf7(S3O4)2
_symmetry_space_group_name_H-M   'P 1'
_cell_length_a   6.41320796
_cell_length_b   6.41320800
_cell_length_c   30.00000000
_cell_angle_alpha   90.00000000
_cell_angle_beta   90.00000000
_cell_angle_gamma   59.99999979
_symmetry_Int_Tables_number   1
_chemical_formula_structural   Hf7(S3O4)2
_chemical_formula_sum   'Hf7 S6 O8'
_cell_volume   1068.56890936
_cell_formula_units_Z   1
loop_
 _symmetry_equiv_pos_site_id
 _symmetry_equiv_pos_as_xyz
  1  'x, y, z'
loop_
 _atom_site_type_symbol
 _atom_site_label
 _atom_site_symmetry_multiplicity
 _atom_site_fract_x
 _atom_site_fract_y
 _atom_site_fract_z
 _atom_site_occupancy
  Hf  Hf0  1  0.00000000  0.00000000  0.58461704  1
  Hf  Hf1  1  0.99988077  0.50002862  0.58429600  1
  Hf  Hf2  1  0.50009060  0.99988077  0.58429600  1
  Hf  Hf3  1  0.50002862  0.50009060  0.58429600  1
  Hf  Hf4  1  0.66666700  0.66666700  0.40182647  1
  Hf  Hf5  1  0.33333300  0.33333300  0.40204690  1
  Hf  Hf6  1  0.00000000  0.00000000  0.40192733  1
  S  S7  1  0.33377716  0.66679799  0.44879724  1
  S  S8  1  0.00036635  0.66659244  0.35485102  1
  S  S9  1  0.66659244  0.33304121  0.35485102  1
  S  S10  1  0.33304121  0.00036635  0.35485102  1
  S  S11  1  0.99942485  0.33377716  0.44879724  1
  S  S12  1  0.66679799  0.99942485  0.44879724  1
  O  O13  1  0.33333300  0.33333300  0.61704343  1
  O  O14  1  0.33382588  0.83303835  0.61716134  1
  O  O15  1  0.66666700  0.66666700  0.55155112  1
  O  O16  1  0.66715470  0.16702282  0.55179398  1
  O  O17  1  0.16582348  0.66715470  0.55179398  1
  O  O18  1  0.16702282  0.16582348  0.55179398  1
  O  O19  1  0.83313477  0.33382588  0.61716134  1
  O  O20  1  0.83303835  0.83313477  0.61716134  1
