# generated using pymatgen
data_Zr3(Mo2S7)2
_symmetry_space_group_name_H-M   'P 1'
_cell_length_a   6.37106900
_cell_length_b   6.37106959
_cell_length_c   30.00000000
_cell_angle_alpha   90.00000000
_cell_angle_beta   90.00000000
_cell_angle_gamma   59.99999789
_symmetry_Int_Tables_number   1
_chemical_formula_structural   Zr3(Mo2S7)2
_chemical_formula_sum   'Zr3 Mo4 S14'
_cell_volume   1054.57272528
_cell_formula_units_Z   1
loop_
 _symmetry_equiv_pos_site_id
 _symmetry_equiv_pos_as_xyz
  1  'x, y, z'
loop_
 _atom_site_type_symbol
 _atom_site_label
 _atom_site_symmetry_multiplicity
 _atom_site_fract_x
 _atom_site_fract_y
 _atom_site_fract_z
 _atom_site_occupancy
  Zr  Zr0  1  0.00000000  0.00000000  0.60098019  1
  Zr  Zr1  1  0.33333300  0.33333300  0.60144576  1
  Zr  Zr2  1  0.66666700  0.66666700  0.60229234  1
  Mo  Mo3  1  0.49957250  0.50058181  0.39331471  1
  Mo  Mo4  1  0.50058181  0.99984569  0.39331471  1
  Mo  Mo5  1  0.00000000  0.00000000  0.39328304  1
  Mo  Mo6  1  0.99984569  0.49957250  0.39331471  1
  S  S7  1  0.66705001  0.33188953  0.64994982  1
  S  S8  1  0.00106045  0.66705001  0.64994982  1
  S  S9  1  0.66626532  0.99866058  0.55337230  1
  S  S10  1  0.66663184  0.16777132  0.44516903  1
  S  S11  1  0.33507410  0.66626532  0.55337230  1
  S  S12  1  0.99866058  0.33507410  0.55337230  1
  S  S13  1  0.16708269  0.16632332  0.34127600  1
  S  S14  1  0.16632332  0.66659498  0.34127600  1
  S  S15  1  0.66659498  0.16708269  0.34127600  1
  S  S16  1  0.66666700  0.66666700  0.34129362  1
  S  S17  1  0.16777132  0.16559784  0.44516903  1
  S  S18  1  0.16559784  0.66663184  0.44516903  1
  S  S19  1  0.33188953  0.00106045  0.64994982  1
  S  S20  1  0.66666700  0.66666700  0.44541849  1
