# generated using pymatgen
data_HfTeSe
_symmetry_space_group_name_H-M   'P 1'
_cell_length_a   3.79352250
_cell_length_b   3.79352300
_cell_length_c   30.00000000
_cell_angle_alpha   90.00000000
_cell_angle_beta   90.00000000
_cell_angle_gamma   60.00000437
_symmetry_Int_Tables_number   1
_chemical_formula_structural   HfTeSe
_chemical_formula_sum   'Hf2 Te2 Se2'
_cell_volume   373.88435388
_cell_formula_units_Z   2
loop_
 _symmetry_equiv_pos_site_id
 _symmetry_equiv_pos_as_xyz
  1  'x, y, z'
loop_
 _atom_site_type_symbol
 _atom_site_label
 _atom_site_symmetry_multiplicity
 _atom_site_fract_x
 _atom_site_fract_y
 _atom_site_fract_z
 _atom_site_occupancy
  Hf  Hf0  1  0.00000000  0.00000000  0.61939493  1
  Hf  Hf1  1  0.00000000  0.00000000  0.37515006  1
  Te  Te2  1  0.33333300  0.33333300  0.31237459  1
  Te  Te3  1  0.33333300  0.33333300  0.43741812  1
  Se  Se4  1  0.33333300  0.33333300  0.56469852  1
  Se  Se5  1  0.33333300  0.33333300  0.67421178  1
