# generated using pymatgen
data_Hf3Zr4(Se3O4)2
_symmetry_space_group_name_H-M   'P 1'
_cell_length_a   6.53077700
_cell_length_b   6.53077743
_cell_length_c   30.00000000
_cell_angle_alpha   90.00000000
_cell_angle_beta   90.00000000
_cell_angle_gamma   59.99999713
_symmetry_Int_Tables_number   1
_chemical_formula_structural   Hf3Zr4(Se3O4)2
_chemical_formula_sum   'Hf3 Zr4 Se6 O8'
_cell_volume   1108.10677924
_cell_formula_units_Z   1
loop_
 _symmetry_equiv_pos_site_id
 _symmetry_equiv_pos_as_xyz
  1  'x, y, z'
loop_
 _atom_site_type_symbol
 _atom_site_label
 _atom_site_symmetry_multiplicity
 _atom_site_fract_x
 _atom_site_fract_y
 _atom_site_fract_z
 _atom_site_occupancy
  Hf  Hf0  1  0.00000000  0.00000000  0.60387247  1
  Hf  Hf1  1  0.33333300  0.33333300  0.60452571  1
  Hf  Hf2  1  0.66666700  0.66666700  0.60382359  1
  Zr  Zr3  1  0.49997676  0.49995802  0.41482469  1
  Zr  Zr4  1  0.49995802  0.00006523  0.41482469  1
  Zr  Zr5  1  0.00000000  0.00000000  0.41414531  1
  Zr  Zr6  1  0.00006523  0.49997676  0.41482469  1
  Se  Se7  1  0.66750468  0.33332482  0.65626760  1
  Se  Se8  1  0.99917050  0.66750468  0.65626760  1
  Se  Se9  1  0.66563301  0.00110831  0.55209603  1
  Se  Se10  1  0.33325867  0.66563301  0.55209603  1
  Se  Se11  1  0.00110831  0.33325867  0.55209603  1
  Se  Se12  1  0.33332482  0.99917050  0.65626760  1
  O  O13  1  0.83452009  0.83300768  0.44678698  1
  O  O14  1  0.16706342  0.16708660  0.38224804  1
  O  O15  1  0.16708660  0.66585098  0.38224804  1
  O  O16  1  0.66585098  0.16706342  0.38224804  1
  O  O17  1  0.66666700  0.66666700  0.38249798  1
  O  O18  1  0.33247123  0.83452009  0.44678698  1
  O  O19  1  0.33333300  0.33333300  0.44714092  1
  O  O20  1  0.83300768  0.33247123  0.44678698  1
