# generated using pymatgen
data_Pb3(W2O7)2
_symmetry_space_group_name_H-M   'P 1'
_cell_length_a   5.76866200
_cell_length_b   5.76866214
_cell_length_c   30.00000000
_cell_angle_alpha   90.00000000
_cell_angle_beta   90.00000000
_cell_angle_gamma   60.00000081
_symmetry_Int_Tables_number   1
_chemical_formula_structural   Pb3(W2O7)2
_chemical_formula_sum   'Pb3 W4 O14'
_cell_volume   864.57383307
_cell_formula_units_Z   1
loop_
 _symmetry_equiv_pos_site_id
 _symmetry_equiv_pos_as_xyz
  1  'x, y, z'
loop_
 _atom_site_type_symbol
 _atom_site_label
 _atom_site_symmetry_multiplicity
 _atom_site_fract_x
 _atom_site_fract_y
 _atom_site_fract_z
 _atom_site_occupancy
  Pb  Pb0  1  0.00000000  0.00000000  0.57820194  1
  Pb  Pb1  1  0.33333300  0.33333300  0.57810406  1
  Pb  Pb2  1  0.66666700  0.66666700  0.57820155  1
  W  W3  1  0.49968756  0.50032710  0.41237427  1
  W  W4  1  0.50032710  0.99998534  0.41237427  1
  W  W5  1  0.00000000  0.00000000  0.41229448  1
  W  W6  1  0.99998534  0.49968756  0.41237427  1
  O  O7  1  0.66655185  0.33298590  0.61503483  1
  O  O8  1  0.00046225  0.66655185  0.61503483  1
  O  O9  1  0.66679495  0.99913789  0.54117687  1
  O  O10  1  0.66666828  0.16794793  0.45295579  1
  O  O11  1  0.33406716  0.66679495  0.54117687  1
  O  O12  1  0.99913789  0.33406716  0.54117687  1
  O  O13  1  0.16696391  0.16643871  0.37146963  1
  O  O14  1  0.16643871  0.66659838  0.37146963  1
  O  O15  1  0.66659838  0.16696391  0.37146963  1
  O  O16  1  0.66666700  0.66666700  0.37155828  1
  O  O17  1  0.16794793  0.16538479  0.45295579  1
  O  O18  1  0.16538479  0.66666828  0.45295579  1
  O  O19  1  0.33298590  0.00046225  0.61503483  1
  O  O20  1  0.66666700  0.66666700  0.45318352  1
