# generated using pymatgen
data_Ge4Te6Pt3S8
_symmetry_space_group_name_H-M   'P 1'
_cell_length_a   6.92068300
_cell_length_b   6.92068250
_cell_length_c   30.00000000
_cell_angle_alpha   90.00000000
_cell_angle_beta   90.00000000
_cell_angle_gamma   60.00000239
_symmetry_Int_Tables_number   1
_chemical_formula_structural   Ge4Te6Pt3S8
_chemical_formula_sum   'Ge4 Te6 Pt3 S8'
_cell_volume   1244.37070775
_cell_formula_units_Z   1
loop_
 _symmetry_equiv_pos_site_id
 _symmetry_equiv_pos_as_xyz
  1  'x, y, z'
loop_
 _atom_site_type_symbol
 _atom_site_label
 _atom_site_symmetry_multiplicity
 _atom_site_fract_x
 _atom_site_fract_y
 _atom_site_fract_z
 _atom_site_occupancy
  Ge  Ge0  1  0.00000000  0.00000000  0.60047241  1
  Ge  Ge1  1  0.99958221  0.50119935  0.59998777  1
  Ge  Ge2  1  0.49921843  0.99958221  0.59998777  1
  Ge  Ge3  1  0.50119935  0.49921843  0.59998777  1
  Te  Te4  1  0.34044692  0.99208895  0.44858428  1
  Te  Te5  1  0.66611237  0.00621489  0.35552859  1
  Te  Te6  1  0.32767274  0.66611237  0.35552859  1
  Te  Te7  1  0.00621489  0.32767274  0.35552859  1
  Te  Te8  1  0.66746413  0.34044692  0.44858428  1
  Te  Te9  1  0.99208895  0.66746413  0.44858428  1
  Pt  Pt10  1  0.00000000  0.00000000  0.40334777  1
  Pt  Pt11  1  0.33333300  0.33333300  0.40371759  1
  Pt  Pt12  1  0.66666700  0.66666700  0.40008561  1
  S  S13  1  0.33373759  0.83502555  0.64643180  1
  S  S14  1  0.83123586  0.33373759  0.64643180  1
  S  S15  1  0.66666700  0.66666700  0.55273181  1
  S  S16  1  0.66712601  0.16032125  0.55323808  1
  S  S17  1  0.17255374  0.66712601  0.55323808  1
  S  S18  1  0.16032125  0.17255374  0.55323808  1
  S  S19  1  0.33333300  0.33333300  0.64618225  1
  S  S20  1  0.83502555  0.83123586  0.64643180  1
