# generated using pymatgen
data_ZrSe2
_symmetry_space_group_name_H-M   'P 1'
_cell_length_a   6.49171300
_cell_length_b   6.49171293
_cell_length_c   30.00000000
_cell_angle_alpha   90.00000000
_cell_angle_beta   90.00000000
_cell_angle_gamma   59.99999454
_symmetry_Int_Tables_number   1
_chemical_formula_structural   ZrSe2
_chemical_formula_sum   'Zr6 Se12'
_cell_volume   1094.88997756
_cell_formula_units_Z   6
loop_
 _symmetry_equiv_pos_site_id
 _symmetry_equiv_pos_as_xyz
  1  'x, y, z'
loop_
 _atom_site_type_symbol
 _atom_site_label
 _atom_site_symmetry_multiplicity
 _atom_site_fract_x
 _atom_site_fract_y
 _atom_site_fract_z
 _atom_site_occupancy
  Zr  Zr0  1  0.00000000  0.00000000  0.60348537  1
  Zr  Zr1  1  0.33333300  0.33333300  0.60348537  1
  Zr  Zr2  1  0.66666700  0.66666700  0.60348537  1
  Zr  Zr3  1  0.66666700  0.66666700  0.39303370  1
  Zr  Zr4  1  0.33333300  0.33333300  0.39303370  1
  Zr  Zr5  1  0.00000000  0.00000000  0.39303370  1
  Se  Se6  1  0.33333300  0.00000000  0.44872196  1
  Se  Se7  1  0.00000000  0.66666700  0.33710499  1
  Se  Se8  1  0.66666700  0.33333300  0.33710499  1
  Se  Se9  1  0.33333300  0.00000000  0.33710499  1
  Se  Se10  1  0.00000000  0.66666700  0.65706934  1
  Se  Se11  1  0.66666700  0.33333300  0.65706934  1
  Se  Se12  1  0.33333300  0.00000000  0.65706934  1
  Se  Se13  1  0.66666700  0.00000000  0.55012864  1
  Se  Se14  1  0.33333300  0.66666700  0.55012864  1
  Se  Se15  1  0.00000000  0.33333300  0.55012864  1
  Se  Se16  1  0.66666700  0.33333300  0.44872196  1
  Se  Se17  1  0.00000000  0.66666700  0.44872196  1
