# generated using pymatgen
data_Hf3Pb4(Se3O4)2
_symmetry_space_group_name_H-M   'P 1'
_cell_length_a   6.65686011
_cell_length_b   6.65686000
_cell_length_c   30.00000000
_cell_angle_alpha   90.00000000
_cell_angle_beta   90.00000000
_cell_angle_gamma   60.00000056
_symmetry_Int_Tables_number   1
_chemical_formula_structural   Hf3Pb4(Se3O4)2
_chemical_formula_sum   'Hf3 Pb4 Se6 O8'
_cell_volume   1151.30593406
_cell_formula_units_Z   1
loop_
 _symmetry_equiv_pos_site_id
 _symmetry_equiv_pos_as_xyz
  1  'x, y, z'
loop_
 _atom_site_type_symbol
 _atom_site_label
 _atom_site_symmetry_multiplicity
 _atom_site_fract_x
 _atom_site_fract_y
 _atom_site_fract_z
 _atom_site_occupancy
  Hf  Hf0  1  0.00000000  0.00000000  0.59965193  1
  Hf  Hf1  1  0.33333300  0.33333300  0.59989805  1
  Hf  Hf2  1  0.66666700  0.66666700  0.59963965  1
  Pb  Pb3  1  0.49967228  0.50007698  0.41426230  1
  Pb  Pb4  1  0.50007698  0.00025074  0.41426230  1
  Pb  Pb5  1  0.00000000  0.00000000  0.41372908  1
  Pb  Pb6  1  0.00025074  0.49967228  0.41426230  1
  Se  Se7  1  0.66709803  0.33332913  0.65094689  1
  Se  Se8  1  0.99957284  0.66709803  0.65094689  1
  Se  Se9  1  0.66613718  0.00064513  0.54900675  1
  Se  Se10  1  0.33321769  0.66613718  0.54900675  1
  Se  Se11  1  0.00064513  0.33321769  0.54900675  1
  Se  Se12  1  0.33332913  0.99957284  0.65094689  1
  O  O13  1  0.83495100  0.83248457  0.45148406  1
  O  O14  1  0.16661895  0.16749800  0.37719865  1
  O  O15  1  0.16749800  0.66588405  0.37719865  1
  O  O16  1  0.66588405  0.16661895  0.37719865  1
  O  O17  1  0.66666700  0.66666700  0.37744826  1
  O  O18  1  0.33256344  0.83495100  0.45148406  1
  O  O19  1  0.33333300  0.33333300  0.45185312  1
  O  O20  1  0.83248457  0.33256344  0.45148406  1
