# generated using pymatgen
data_Zr3W4(Se3S4)2
_symmetry_space_group_name_H-M   'P 1'
_cell_length_a   6.39173039
_cell_length_b   6.39173039
_cell_length_c   30.00000000
_cell_angle_alpha   90.00000000
_cell_angle_beta   90.00000000
_cell_angle_gamma   59.99999600
_symmetry_Int_Tables_number   1
_chemical_formula_structural   Zr3W4(Se3S4)2
_chemical_formula_sum   'Zr3 W4 Se6 S8'
_cell_volume   1061.42365901
_cell_formula_units_Z   1
loop_
 _symmetry_equiv_pos_site_id
 _symmetry_equiv_pos_as_xyz
  1  'x, y, z'
loop_
 _atom_site_type_symbol
 _atom_site_label
 _atom_site_symmetry_multiplicity
 _atom_site_fract_x
 _atom_site_fract_y
 _atom_site_fract_z
 _atom_site_occupancy
  Zr  Zr0  1  0.66666700  0.66666700  0.38329762  1
  Zr  Zr1  1  0.33333300  0.33333300  0.39200562  1
  Zr  Zr2  1  0.00000000  0.00000000  0.39397869  1
  W  W3  1  0.00000000  0.00000000  0.60756623  1
  W  W4  1  0.99983313  0.50067369  0.60753688  1
  W  W5  1  0.49949318  0.99983313  0.60753688  1
  W  W6  1  0.50067369  0.49949318  0.60753688  1
  Se  Se7  1  0.34308102  0.99199261  0.44594920  1
  Se  Se8  1  0.00792591  0.66812113  0.33336872  1
  Se  Se9  1  0.66812113  0.32395296  0.33336872  1
  Se  Se10  1  0.32395296  0.00792591  0.33336872  1
  Se  Se11  1  0.99199261  0.66492637  0.44594920  1
  Se  Se12  1  0.66492637  0.34308102  0.44594920  1
  S  S13  1  0.16715838  0.66658876  0.65970582  1
  S  S14  1  0.16625386  0.16715838  0.65970582  1
  S  S15  1  0.66666700  0.66666700  0.55536089  1
  S  S16  1  0.66661541  0.16550740  0.55557047  1
  S  S17  1  0.16787819  0.66661541  0.55557047  1
  S  S18  1  0.16550740  0.16787819  0.55557047  1
  S  S19  1  0.66666700  0.66666700  0.65966670  1
  S  S20  1  0.66658876  0.16625386  0.65970582  1
