# generated using pymatgen
data_CrTe2MoSe2
_symmetry_space_group_name_H-M   'P 1'
_cell_length_a   3.39495811
_cell_length_b   3.39495800
_cell_length_c   30.00000000
_cell_angle_alpha   90.00000000
_cell_angle_beta   90.00000000
_cell_angle_gamma   60.00000107
_symmetry_Int_Tables_number   1
_chemical_formula_structural   CrTe2MoSe2
_chemical_formula_sum   'Cr1 Te2 Mo1 Se2'
_cell_volume   299.44751745
_cell_formula_units_Z   1
loop_
 _symmetry_equiv_pos_site_id
 _symmetry_equiv_pos_as_xyz
  1  'x, y, z'
loop_
 _atom_site_type_symbol
 _atom_site_label
 _atom_site_symmetry_multiplicity
 _atom_site_fract_x
 _atom_site_fract_y
 _atom_site_fract_z
 _atom_site_occupancy
  Cr  Cr0  1  0.00000000  0.00000000  0.62207785  1
  Te  Te1  1  0.33333300  0.33333300  0.56451887  1
  Te  Te2  1  0.33333300  0.33333300  0.67962228  1
  Mo  Mo3  1  0.00000000  0.00000000  0.37918536  1
  Se  Se4  1  0.33333300  0.33333300  0.32455555  1
  Se  Se5  1  0.33333300  0.33333300  0.43376010  1
