# generated using pymatgen
data_Sn4W7(S4O7)2
_symmetry_space_group_name_H-M   'P 1'
_cell_length_a   7.44268583
_cell_length_b   7.44268570
_cell_length_c   30.00000000
_cell_angle_alpha   90.00000000
_cell_angle_beta   90.00000000
_cell_angle_gamma   59.99999641
_symmetry_Int_Tables_number   1
_chemical_formula_structural   Sn4W7(S4O7)2
_chemical_formula_sum   'Sn4 W7 S8 O14'
_cell_volume   1439.16714897
_cell_formula_units_Z   1
loop_
 _symmetry_equiv_pos_site_id
 _symmetry_equiv_pos_as_xyz
  1  'x, y, z'
loop_
 _atom_site_type_symbol
 _atom_site_label
 _atom_site_symmetry_multiplicity
 _atom_site_fract_x
 _atom_site_fract_y
 _atom_site_fract_z
 _atom_site_occupancy
  Sn  Sn0  1  0.00000000  1.00000000  0.59805117  1
  Sn  Sn1  1  0.00013921  0.49996075  0.59827414  1
  Sn  Sn2  1  0.49990004  0.00013920  0.59827414  1
  Sn  Sn3  1  0.49996075  0.49990005  0.59827414  1
  W  W4  1  0.85723005  0.42860241  0.40564809  1
  W  W5  1  0.71416764  0.85723009  0.40564810  1
  W  W6  1  0.42860243  0.71416763  0.40564810  1
  W  W7  1  0.28562306  0.14286669  0.40581060  1
  W  W8  1  0.14286681  0.57151029  0.40581060  1
  W  W9  1  0.00000010  0.00000003  0.40582192  1
  W  W10  1  0.57151026  0.28562321  0.40581060  1
  S  S11  1  0.83353263  0.33288192  0.64714345  1
  S  S12  1  0.33333314  0.33333314  0.64720297  1
  S  S13  1  0.33288192  0.83358487  0.64714345  1
  S  S14  1  0.66666685  0.66666685  0.54974750  1
  S  S15  1  0.66640648  0.16656208  0.54934249  1
  S  S16  1  0.16703201  0.66640648  0.54934249  1
  S  S17  1  0.16656209  0.16703200  0.54934249  1
  S  S18  1  0.83358487  0.83353263  0.64714345  1
  O  O19  1  0.80973433  0.23844157  0.44729299  1
  O  O20  1  0.66666665  0.66666664  0.44696816  1
  O  O21  1  0.52367880  0.09494427  0.44730177  1
  O  O22  1  0.38137707  0.52367887  0.44730176  1
  O  O23  1  0.23844152  0.95182419  0.44729301  1
  O  O24  1  0.09549524  0.38094566  0.36423394  1
  O  O25  1  0.52355913  0.09549530  0.36423394  1
  O  O26  1  0.80961566  0.23788026  0.36423716  1
  O  O27  1  0.66666665  0.66666664  0.36405537  1
  O  O28  1  0.38094568  0.52355920  0.36423396  1
  O  O29  1  0.23788021  0.95250416  0.36423715  1
  O  O30  1  0.95182426  0.80973427  0.44729301  1
  O  O31  1  0.95250424  0.80961560  0.36423714  1
  O  O32  1  0.09494420  0.38137705  0.44730177  1
