# generated using pymatgen
data_Pd4Pt3(Se3O4)2
_symmetry_space_group_name_H-M   'P 1'
_cell_length_a   6.33779600
_cell_length_b   6.33779571
_cell_length_c   30.00000000
_cell_angle_alpha   90.00000000
_cell_angle_beta   90.00000000
_cell_angle_gamma   59.99999846
_symmetry_Int_Tables_number   1
_chemical_formula_structural   Pd4Pt3(Se3O4)2
_chemical_formula_sum   'Pd4 Pt3 Se6 O8'
_cell_volume   1043.58630608
_cell_formula_units_Z   1
loop_
 _symmetry_equiv_pos_site_id
 _symmetry_equiv_pos_as_xyz
  1  'x, y, z'
loop_
 _atom_site_type_symbol
 _atom_site_label
 _atom_site_symmetry_multiplicity
 _atom_site_fract_x
 _atom_site_fract_y
 _atom_site_fract_z
 _atom_site_occupancy
  Pd  Pd0  1  0.00000000  0.00000000  0.57856551  1
  Pd  Pd1  1  0.99975799  0.50000917  0.57872833  1
  Pd  Pd2  1  0.50023284  0.99975799  0.57872833  1
  Pd  Pd3  1  0.50000917  0.50023284  0.57872833  1
  Pt  Pt4  1  0.66666700  0.66666700  0.41350524  1
  Pt  Pt5  1  0.33333300  0.33333300  0.41529498  1
  Pt  Pt6  1  0.00000000  0.00000000  0.41503047  1
  Se  Se7  1  0.33743353  0.99503212  0.45950462  1
  Se  Se8  1  0.66602101  0.00398738  0.36917381  1
  Se  Se9  1  0.32999161  0.66602101  0.36917381  1
  Se  Se10  1  0.00398738  0.32999161  0.36917381  1
  Se  Se11  1  0.99503212  0.66753434  0.45950462  1
  Se  Se12  1  0.66753434  0.33743353  0.45950462  1
  O  O13  1  0.33333300  0.33333300  0.60953647  1
  O  O14  1  0.33224886  0.83237673  0.60976900  1
  O  O15  1  0.66666700  0.66666700  0.54755327  1
  O  O16  1  0.66659319  0.16514678  0.54734426  1
  O  O17  1  0.16826103  0.66659319  0.54734426  1
  O  O18  1  0.16514678  0.16826103  0.54734426  1
  O  O19  1  0.83537341  0.33224886  0.60976900  1
  O  O20  1  0.83237673  0.83537341  0.60976900  1
