# generated using pymatgen
data_ZrTiTe4
_symmetry_space_group_name_H-M   'P 1'
_cell_length_a   3.82853562
_cell_length_b   3.82853600
_cell_length_c   30.00000000
_cell_angle_alpha   90.00000000
_cell_angle_beta   90.00000000
_cell_angle_gamma   59.99999674
_symmetry_Int_Tables_number   1
_chemical_formula_structural   ZrTiTe4
_chemical_formula_sum   'Zr1 Ti1 Te4'
_cell_volume   380.81785255
_cell_formula_units_Z   1
loop_
 _symmetry_equiv_pos_site_id
 _symmetry_equiv_pos_as_xyz
  1  'x, y, z'
loop_
 _atom_site_type_symbol
 _atom_site_label
 _atom_site_symmetry_multiplicity
 _atom_site_fract_x
 _atom_site_fract_y
 _atom_site_fract_z
 _atom_site_occupancy
  Zr  Zr0  1  0.00000000  0.00000000  0.37454817  1
  Ti  Ti1  1  0.00000000  0.00000000  0.62293803  1
  Te  Te2  1  0.33333300  0.33333300  0.56514878  1
  Te  Te3  1  0.33333300  0.33333300  0.68158124  1
  Te  Te4  1  0.33333300  0.33333300  0.31132519  1
  Te  Te5  1  0.33333300  0.33333300  0.43708359  1
