# generated using pymatgen
data_Hf3Mo4(Se3S4)2
_symmetry_space_group_name_H-M   'P 1'
_cell_length_a   6.36890566
_cell_length_b   6.36890566
_cell_length_c   30.00000000
_cell_angle_alpha   90.00000000
_cell_angle_beta   90.00000000
_cell_angle_gamma   60.00000351
_symmetry_Int_Tables_number   1
_chemical_formula_structural   Hf3Mo4(Se3S4)2
_chemical_formula_sum   'Hf3 Mo4 Se6 S8'
_cell_volume   1053.85663429
_cell_formula_units_Z   1
loop_
 _symmetry_equiv_pos_site_id
 _symmetry_equiv_pos_as_xyz
  1  'x, y, z'
loop_
 _atom_site_type_symbol
 _atom_site_label
 _atom_site_symmetry_multiplicity
 _atom_site_fract_x
 _atom_site_fract_y
 _atom_site_fract_z
 _atom_site_occupancy
  Hf  Hf0  1  0.00000000  0.00000000  0.60647185  1
  Hf  Hf1  1  0.33333300  0.33333300  0.60852911  1
  Hf  Hf2  1  0.66666700  0.66666700  0.61543773  1
  Mo  Mo3  1  0.50080987  0.49930614  0.39271203  1
  Mo  Mo4  1  0.49930614  0.99988399  0.39271203  1
  Mo  Mo5  1  0.00000000  0.00000000  0.39270292  1
  Mo  Mo6  1  0.99988399  0.50080987  0.39271203  1
  Se  Se7  1  0.66815119  0.32575393  0.66591915  1
  Se  Se8  1  0.00609487  0.66815119  0.66591915  1
  Se  Se9  1  0.99363070  0.66492173  0.55459841  1
  Se  Se10  1  0.66492173  0.34144757  0.55459841  1
  Se  Se11  1  0.34144757  0.99363070  0.55459841  1
  Se  Se12  1  0.32575393  0.00609487  0.66591915  1
  S  S13  1  0.66655382  0.16528707  0.44460616  1
  S  S14  1  0.16605656  0.16727595  0.34065504  1
  S  S15  1  0.16727595  0.66666849  0.34065504  1
  S  S16  1  0.66666849  0.16605656  0.34065504  1
  S  S17  1  0.66666700  0.66666700  0.34066898  1
  S  S18  1  0.16528707  0.16816011  0.44460616  1
  S  S19  1  0.16816011  0.66655382  0.44460616  1
  S  S20  1  0.66666700  0.66666700  0.44484002  1
