# generated using pymatgen
data_Hf4Ni7(Se4O7)2
_symmetry_space_group_name_H-M   'P 1'
_cell_length_a   7.42887253
_cell_length_b   7.42887268
_cell_length_c   30.00000000
_cell_angle_alpha   90.00000000
_cell_angle_beta   90.00000000
_cell_angle_gamma   60.00000271
_symmetry_Int_Tables_number   1
_chemical_formula_structural   Hf4Ni7(Se4O7)2
_chemical_formula_sum   'Hf4 Ni7 Se8 O14'
_cell_volume   1433.83018894
_cell_formula_units_Z   1
loop_
 _symmetry_equiv_pos_site_id
 _symmetry_equiv_pos_as_xyz
  1  'x, y, z'
loop_
 _atom_site_type_symbol
 _atom_site_label
 _atom_site_symmetry_multiplicity
 _atom_site_fract_x
 _atom_site_fract_y
 _atom_site_fract_z
 _atom_site_occupancy
  Hf  Hf0  1  0.00000000  0.00000000  0.40576057  1
  Hf  Hf1  1  0.50081223  0.99947056  0.40004799  1
  Hf  Hf2  1  0.49971721  0.50081223  0.40004799  1
  Hf  Hf3  1  0.99947056  0.49971721  0.40004799  1
  Ni  Ni4  1  0.71426816  0.85677910  0.58121007  1
  Ni  Ni5  1  0.00000000  0.00000000  0.58164441  1
  Ni  Ni6  1  0.42895275  0.71426816  0.58121007  1
  Ni  Ni7  1  0.57129137  0.28596811  0.58120445  1
  Ni  Ni8  1  0.14274052  0.57129137  0.58120445  1
  Ni  Ni9  1  0.28596811  0.14274052  0.58120445  1
  Ni  Ni10  1  0.85677910  0.42895275  0.58121007  1
  Se  Se11  1  0.16809475  0.66185411  0.45659350  1
  Se  Se12  1  0.66666700  0.66666700  0.34454860  1
  Se  Se13  1  0.67072894  0.16504715  0.34625518  1
  Se  Se14  1  0.16422491  0.67072894  0.34625518  1
  Se  Se15  1  0.16504715  0.16422491  0.34625518  1
  Se  Se16  1  0.17005214  0.16809475  0.45659350  1
  Se  Se17  1  0.66666700  0.66666700  0.45537875  1
  Se  Se18  1  0.66185411  0.17005214  0.45659350  1
  O  O19  1  0.66666700  0.66666700  0.61309011  1
  O  O20  1  0.09487598  0.38125670  0.61295127  1
  O  O21  1  0.95198242  0.80873041  0.61310386  1
  O  O22  1  0.52386733  0.09487598  0.61295127  1
  O  O23  1  0.23928717  0.95198242  0.61310386  1
  O  O24  1  0.76251496  0.04711053  0.54945495  1
  O  O25  1  0.90505258  0.61910080  0.54918544  1
  O  O26  1  0.47584662  0.90505258  0.54918544  1
  O  O27  1  0.61910080  0.47584662  0.54918544  1
  O  O28  1  0.19037452  0.76251496  0.54945495  1
  O  O29  1  0.33333300  0.33333300  0.54911547  1
  O  O30  1  0.04711053  0.19037452  0.54945495  1
  O  O31  1  0.80873041  0.23928717  0.61310386  1
  O  O32  1  0.38125670  0.52386733  0.61295127  1
