# generated using pymatgen
data_Hf4Ni7(S4O7)2
_symmetry_space_group_name_H-M   'P 1'
_cell_length_a   7.40259306
_cell_length_b   7.40259296
_cell_length_c   30.00000000
_cell_angle_alpha   90.00000000
_cell_angle_beta   90.00000000
_cell_angle_gamma   59.99999970
_symmetry_Int_Tables_number   1
_chemical_formula_structural   Hf4Ni7(S4O7)2
_chemical_formula_sum   'Hf4 Ni7 S8 O14'
_cell_volume   1423.70375634
_cell_formula_units_Z   1
loop_
 _symmetry_equiv_pos_site_id
 _symmetry_equiv_pos_as_xyz
  1  'x, y, z'
loop_
 _atom_site_type_symbol
 _atom_site_label
 _atom_site_symmetry_multiplicity
 _atom_site_fract_x
 _atom_site_fract_y
 _atom_site_fract_z
 _atom_site_occupancy
  Hf  Hf0  1  0.00000000  0.00000000  0.59126591  1
  Hf  Hf1  1  0.99964426  0.50040797  0.59145288  1
  Hf  Hf2  1  0.49994777  0.99964426  0.59145288  1
  Hf  Hf3  1  0.50040797  0.49994777  0.59145288  1
  Ni  Ni4  1  0.85684922  0.71435954  0.41851200  1
  Ni  Ni5  1  0.42879124  0.85684922  0.41851200  1
  Ni  Ni6  1  0.28581035  0.57131987  0.41856920  1
  Ni  Ni7  1  0.57131987  0.14286977  0.41856920  1
  Ni  Ni8  1  0.14286977  0.28581035  0.41856920  1
  Ni  Ni9  1  0.00000000  0.00000000  0.41815196  1
  Ni  Ni10  1  0.71435954  0.42879124  0.41851200  1
  S  S11  1  0.83341865  0.33324460  0.63860349  1
  S  S12  1  0.33333300  0.33333300  0.63854488  1
  S  S13  1  0.33324460  0.83333574  0.63860349  1
  S  S14  1  0.66666700  0.66666700  0.54450392  1
  S  S15  1  0.66629531  0.16657241  0.54474041  1
  S  S16  1  0.16713328  0.66629531  0.54474041  1
  S  S17  1  0.16657241  0.16713328  0.54474041  1
  S  S18  1  0.83333574  0.83341865  0.63860349  1
  O  O19  1  0.90505318  0.47599876  0.45054529  1
  O  O20  1  0.47599876  0.61894806  0.45054529  1
  O  O21  1  0.76265593  0.19039070  0.45028190  1
  O  O22  1  0.33333300  0.33333300  0.45065354  1
  O  O23  1  0.19039070  0.04695337  0.45028190  1
  O  O24  1  0.80878148  0.95230559  0.38651545  1
  O  O25  1  0.52382014  0.38114012  0.38668446  1
  O  O26  1  0.66666700  0.66666700  0.38657457  1
  O  O27  1  0.23891293  0.80878148  0.38651545  1
  O  O28  1  0.09503975  0.52382014  0.38668446  1
  O  O29  1  0.95230559  0.23891293  0.38651545  1
  O  O30  1  0.61894806  0.90505318  0.45054529  1
  O  O31  1  0.38114012  0.09503975  0.38668446  1
  O  O32  1  0.04695337  0.76265593  0.45028190  1
