# generated using pymatgen
data_Zr3(Ge2O7)2
_symmetry_space_group_name_H-M   'P 1'
_cell_length_a   5.72727556
_cell_length_b   5.72727500
_cell_length_c   30.00000000
_cell_angle_alpha   90.00000000
_cell_angle_beta   90.00000000
_cell_angle_gamma   59.99999745
_symmetry_Int_Tables_number   1
_chemical_formula_structural   Zr3(Ge2O7)2
_chemical_formula_sum   'Zr3 Ge4 O14'
_cell_volume   852.21267818
_cell_formula_units_Z   1
loop_
 _symmetry_equiv_pos_site_id
 _symmetry_equiv_pos_as_xyz
  1  'x, y, z'
loop_
 _atom_site_type_symbol
 _atom_site_label
 _atom_site_symmetry_multiplicity
 _atom_site_fract_x
 _atom_site_fract_y
 _atom_site_fract_z
 _atom_site_occupancy
  Zr  Zr0  1  0.66666700  0.66666700  0.42293280  1
  Zr  Zr1  1  0.33333300  0.33333300  0.42140213  1
  Zr  Zr2  1  0.00000000  0.00000000  0.42137467  1
  Ge  Ge3  1  0.00000000  0.00000000  0.58192206  1
  Ge  Ge4  1  0.00003910  0.49971012  0.58166077  1
  Ge  Ge5  1  0.50025078  0.00003910  0.58166077  1
  Ge  Ge6  1  0.49971012  0.50025078  0.58166077  1
  O  O7  1  0.33355184  0.66665154  0.45346472  1
  O  O8  1  0.00014430  0.66667991  0.39017583  1
  O  O9  1  0.66667991  0.33317579  0.39017583  1
  O  O10  1  0.33317579  0.00014430  0.39017583  1
  O  O11  1  0.83284044  0.83328433  0.61516467  1
  O  O12  1  0.66665154  0.99979662  0.45346472  1
  O  O13  1  0.33333300  0.33333300  0.61511656  1
  O  O14  1  0.33387423  0.83284044  0.61516467  1
  O  O15  1  0.66666700  0.66666700  0.54813890  1
  O  O16  1  0.66694642  0.16751351  0.54844297  1
  O  O17  1  0.16554107  0.66694642  0.54844297  1
  O  O18  1  0.16751351  0.16554107  0.54844297  1
  O  O19  1  0.83328433  0.33387423  0.61516467  1
  O  O20  1  0.99979662  0.33355184  0.45346472  1
