# generated using pymatgen
data_Cr4Pd3(Se3S4)2
_symmetry_space_group_name_H-M   'P 1'
_cell_length_a   6.27671800
_cell_length_b   6.27671779
_cell_length_c   30.00000000
_cell_angle_alpha   90.00000000
_cell_angle_beta   90.00000000
_cell_angle_gamma   59.99999890
_symmetry_Int_Tables_number   1
_chemical_formula_structural   Cr4Pd3(Se3S4)2
_chemical_formula_sum   'Cr4 Pd3 Se6 S8'
_cell_volume   1023.56894623
_cell_formula_units_Z   1
loop_
 _symmetry_equiv_pos_site_id
 _symmetry_equiv_pos_as_xyz
  1  'x, y, z'
loop_
 _atom_site_type_symbol
 _atom_site_label
 _atom_site_symmetry_multiplicity
 _atom_site_fract_x
 _atom_site_fract_y
 _atom_site_fract_z
 _atom_site_occupancy
  Cr  Cr0  1  0.99979234  0.49927546  0.39605331  1
  Cr  Cr1  1  0.49927546  0.50093220  0.39605331  1
  Cr  Cr2  1  0.50093220  0.99979234  0.39605331  1
  Cr  Cr3  1  0.00000000  0.00000000  0.39606860  1
  Pd  Pd4  1  0.00000000  0.00000000  0.59675355  1
  Pd  Pd5  1  0.66666700  0.66666700  0.59851126  1
  Pd  Pd6  1  0.33333300  0.33333300  0.59694487  1
  Se  Se7  1  0.66631615  0.99533689  0.55168439  1
  Se  Se8  1  0.32927003  0.00374359  0.64343367  1
  Se  Se9  1  0.66698638  0.32927003  0.64343367  1
  Se  Se10  1  0.00374359  0.66698638  0.64343367  1
  Se  Se11  1  0.99533689  0.33834696  0.55168439  1
  Se  Se12  1  0.33834696  0.66631615  0.55168439  1
  S  S13  1  0.66646008  0.16855606  0.44390471  1
  S  S14  1  0.16730141  0.16599719  0.34804383  1
  S  S15  1  0.16599719  0.66670240  0.34804383  1
  S  S16  1  0.66670240  0.16730141  0.34804383  1
  S  S17  1  0.66666700  0.66666700  0.34804554  1
  S  S18  1  0.16855606  0.16498486  0.44390471  1
  S  S19  1  0.16498486  0.66646008  0.44390471  1
  S  S20  1  0.66666700  0.66666700  0.44420346  1
