# generated using pymatgen
data_TiCr(TeS)2
_symmetry_space_group_name_H-M   'P 1'
_cell_length_a   3.44261967
_cell_length_b   3.44261900
_cell_length_c   30.00000000
_cell_angle_alpha   90.00000000
_cell_angle_beta   90.00000000
_cell_angle_gamma   59.99999687
_symmetry_Int_Tables_number   1
_chemical_formula_structural   TiCr(TeS)2
_chemical_formula_sum   'Ti1 Cr1 Te2 S2'
_cell_volume   307.91431548
_cell_formula_units_Z   1
loop_
 _symmetry_equiv_pos_site_id
 _symmetry_equiv_pos_as_xyz
  1  'x, y, z'
loop_
 _atom_site_type_symbol
 _atom_site_label
 _atom_site_symmetry_multiplicity
 _atom_site_fract_x
 _atom_site_fract_y
 _atom_site_fract_z
 _atom_site_occupancy
  Ti  Ti0  1  0.00000000  0.00000000  0.60906357  1
  Cr  Cr1  1  0.00000000  0.00000000  0.38141209  1
  Te  Te2  1  0.33333300  0.33333300  0.32424927  1
  Te  Te3  1  0.33333300  0.33333300  0.43863370  1
  S  S4  1  0.33333300  0.33333300  0.56220738  1
  S  S5  1  0.66666700  0.66666700  0.65594099  1
