# generated using pymatgen
data_Te6Mo4Pt3S8
_symmetry_space_group_name_H-M   'P 1'
_cell_length_a   6.66203800
_cell_length_b   6.66203787
_cell_length_c   30.00000000
_cell_angle_alpha   90.00000000
_cell_angle_beta   90.00000000
_cell_angle_gamma   59.99999936
_symmetry_Int_Tables_number   1
_chemical_formula_structural   Te6Mo4Pt3S8
_chemical_formula_sum   'Te6 Mo4 Pt3 S8'
_cell_volume   1153.09764806
_cell_formula_units_Z   1
loop_
 _symmetry_equiv_pos_site_id
 _symmetry_equiv_pos_as_xyz
  1  'x, y, z'
loop_
 _atom_site_type_symbol
 _atom_site_label
 _atom_site_symmetry_multiplicity
 _atom_site_fract_x
 _atom_site_fract_y
 _atom_site_fract_z
 _atom_site_occupancy
  Te  Te0  1  0.99173100  0.34221469  0.55206324  1
  Te  Te1  1  0.34221469  0.66605432  0.55206324  1
  Te  Te2  1  0.66605432  0.99173100  0.55206324  1
  Te  Te3  1  0.32584984  0.00693749  0.65108714  1
  Te  Te4  1  0.66721267  0.32584984  0.65108714  1
  Te  Te5  1  0.00693749  0.66721267  0.65108714  1
  Mo  Mo6  1  0.99979753  0.49899086  0.39187709  1
  Mo  Mo7  1  0.49899086  0.50121161  0.39187709  1
  Mo  Mo8  1  0.50121161  0.99979753  0.39187709  1
  Mo  Mo9  1  0.00000000  0.00000000  0.39187512  1
  Pt  Pt10  1  0.00000000  0.00000000  0.60008829  1
  Pt  Pt11  1  0.66666700  0.66666700  0.60373344  1
  Pt  Pt12  1  0.33333300  0.33333300  0.60042839  1
  S  S13  1  0.16767945  0.16565630  0.34143739  1
  S  S14  1  0.16565630  0.66666525  0.34143739  1
  S  S15  1  0.66666525  0.16767945  0.34143739  1
  S  S16  1  0.66666700  0.66666700  0.34147444  1
  S  S17  1  0.16922858  0.16424478  0.44210070  1
  S  S18  1  0.16424478  0.66652764  0.44210070  1
  S  S19  1  0.66652764  0.16922858  0.44210070  1
  S  S20  1  0.66666700  0.66666700  0.44244662  1
