# generated using pymatgen
data_MoWS4
_symmetry_space_group_name_H-M   'P 1'
_cell_length_a   3.18498532
_cell_length_b   3.18498500
_cell_length_c   30.00000000
_cell_angle_alpha   90.00000000
_cell_angle_beta   90.00000000
_cell_angle_gamma   59.99999292
_symmetry_Int_Tables_number   1
_chemical_formula_structural   MoWS4
_chemical_formula_sum   'Mo1 W1 S4'
_cell_volume   263.55222167
_cell_formula_units_Z   1
loop_
 _symmetry_equiv_pos_site_id
 _symmetry_equiv_pos_as_xyz
  1  'x, y, z'
loop_
 _atom_site_type_symbol
 _atom_site_label
 _atom_site_symmetry_multiplicity
 _atom_site_fract_x
 _atom_site_fract_y
 _atom_site_fract_z
 _atom_site_occupancy
  Mo  Mo0  1  0.00000000  0.00000000  0.61226001  1
  W  W1  1  0.00000000  0.00000000  0.38743204  1
  S  S2  1  0.33333300  0.33333300  0.56030791  1
  S  S3  1  0.33333300  0.33333300  0.66425248  1
  S  S4  1  0.33333300  0.33333300  0.33516998  1
  S  S5  1  0.33333300  0.33333300  0.43963459  1
