# generated using pymatgen
data_TiTe2PdS2
_symmetry_space_group_name_H-M   'P 1'
_cell_length_a   6.31363200
_cell_length_b   6.31363226
_cell_length_c   30.00000000
_cell_angle_alpha   90.00000000
_cell_angle_beta   90.00000000
_cell_angle_gamma   60.00000135
_symmetry_Int_Tables_number   1
_chemical_formula_structural   TiTe2PdS2
_chemical_formula_sum   'Ti3 Te6 Pd3 S6'
_cell_volume   1035.64387158
_cell_formula_units_Z   3
loop_
 _symmetry_equiv_pos_site_id
 _symmetry_equiv_pos_as_xyz
  1  'x, y, z'
loop_
 _atom_site_type_symbol
 _atom_site_label
 _atom_site_symmetry_multiplicity
 _atom_site_fract_x
 _atom_site_fract_y
 _atom_site_fract_z
 _atom_site_occupancy
  Ti  Ti0  1  0.66666700  0.66666700  0.39998049  1
  Ti  Ti1  1  0.33333300  0.33333300  0.39998049  1
  Ti  Ti2  1  0.00000000  0.00000000  0.39998049  1
  Te  Te3  1  0.66666700  0.00000000  0.45939918  1
  Te  Te4  1  0.00000000  0.33333300  0.45939918  1
  Te  Te5  1  0.66666700  0.00000000  0.33938117  1
  Te  Te6  1  0.33333300  0.66666700  0.33938117  1
  Te  Te7  1  0.00000000  0.33333300  0.33938117  1
  Te  Te8  1  0.33333300  0.66666700  0.45939918  1
  Pd  Pd9  1  0.00000000  0.00000000  0.58193738  1
  Pd  Pd10  1  0.66666700  0.66666700  0.58193738  1
  Pd  Pd11  1  0.33333300  0.33333300  0.58193738  1
  S  S12  1  0.33333300  0.66666700  0.62199018  1
  S  S13  1  0.00000000  0.66666700  0.54277160  1
  S  S14  1  0.66666700  0.33333300  0.54277160  1
  S  S15  1  0.33333300  0.00000000  0.54277160  1
  S  S16  1  0.66666700  0.00000000  0.62199018  1
  S  S17  1  0.00000000  0.33333300  0.62199018  1
