# generated using pymatgen
data_Hf3(Ni2O7)2
_symmetry_space_group_name_H-M   'P 1'
_cell_length_a   5.65130328
_cell_length_b   5.65130400
_cell_length_c   30.00000000
_cell_angle_alpha   90.00000000
_cell_angle_beta   90.00000000
_cell_angle_gamma   59.99999580
_symmetry_Int_Tables_number   1
_chemical_formula_structural   Hf3(Ni2O7)2
_chemical_formula_sum   'Hf3 Ni4 O14'
_cell_volume   829.75361401
_cell_formula_units_Z   1
loop_
 _symmetry_equiv_pos_site_id
 _symmetry_equiv_pos_as_xyz
  1  'x, y, z'
loop_
 _atom_site_type_symbol
 _atom_site_label
 _atom_site_symmetry_multiplicity
 _atom_site_fract_x
 _atom_site_fract_y
 _atom_site_fract_z
 _atom_site_occupancy
  Hf  Hf0  1  0.00000000  0.00000000  0.57552917  1
  Hf  Hf1  1  0.33333300  0.33333300  0.57475004  1
  Hf  Hf2  1  0.66666700  0.66666700  0.57551735  1
  Ni  Ni3  1  0.49981125  0.50012267  0.42149724  1
  Ni  Ni4  1  0.50012267  0.00006608  0.42149724  1
  Ni  Ni5  1  0.00000000  0.00000000  0.42139556  1
  Ni  Ni6  1  0.00006608  0.49981125  0.42149724  1
  O  O7  1  0.66635049  0.33335435  0.60715404  1
  O  O8  1  0.00029516  0.66635049  0.60715404  1
  O  O9  1  0.66689137  0.99979067  0.54368356  1
  O  O10  1  0.83421473  0.83241887  0.45283852  1
  O  O11  1  0.33331795  0.66689137  0.54368356  1
  O  O12  1  0.99979067  0.33331795  0.54368356  1
  O  O13  1  0.16703690  0.16640079  0.39000649  1
  O  O14  1  0.16640079  0.66656331  0.39000649  1
  O  O15  1  0.66656331  0.16703690  0.39000649  1
  O  O16  1  0.66666700  0.66666700  0.39001277  1
  O  O17  1  0.33336539  0.83421473  0.45283852  1
  O  O18  1  0.33333300  0.33333300  0.45306152  1
  O  O19  1  0.33335435  0.00029516  0.60715404  1
  O  O20  1  0.83241887  0.33336539  0.45283852  1
