# generated using pymatgen
data_Ti4Te6Pd3S8
_symmetry_space_group_name_H-M   'P 1'
_cell_length_a   6.89434036
_cell_length_b   6.89434036
_cell_length_c   30.00000000
_cell_angle_alpha   90.00000000
_cell_angle_beta   90.00000000
_cell_angle_gamma   59.99999653
_symmetry_Int_Tables_number   1
_chemical_formula_structural   Ti4Te6Pd3S8
_chemical_formula_sum   'Ti4 Te6 Pd3 S8'
_cell_volume   1234.91569755
_cell_formula_units_Z   1
loop_
 _symmetry_equiv_pos_site_id
 _symmetry_equiv_pos_as_xyz
  1  'x, y, z'
loop_
 _atom_site_type_symbol
 _atom_site_label
 _atom_site_symmetry_multiplicity
 _atom_site_fract_x
 _atom_site_fract_y
 _atom_site_fract_z
 _atom_site_occupancy
  Ti  Ti0  1  0.00229084  0.50086349  0.40334778  1
  Ti  Ti1  1  0.50086349  0.49684568  0.40334778  1
  Ti  Ti2  1  0.49684568  0.00229084  0.40334778  1
  Ti  Ti3  1  0.00000000  0.00000000  0.40513228  1
  Te  Te4  1  0.33248258  0.00827224  0.54468156  1
  Te  Te5  1  0.65924519  0.33248258  0.54468156  1
  Te  Te6  1  0.00827224  0.65924519  0.54468156  1
  Te  Te7  1  0.33343114  0.67459896  0.63747675  1
  Te  Te8  1  0.67459896  0.99196990  0.63747675  1
  Te  Te9  1  0.99196990  0.33343114  0.63747675  1
  Pd  Pd10  1  0.00000000  0.00000000  0.58902342  1
  Pd  Pd11  1  0.66666700  0.66666700  0.58889420  1
  Pd  Pd12  1  0.33333300  0.33333300  0.59369162  1
  S  S13  1  0.16645498  0.16646201  0.35754344  1
  S  S14  1  0.16646201  0.66708402  0.35754344  1
  S  S15  1  0.66708402  0.16645498  0.35754344  1
  S  S16  1  0.66666700  0.66666700  0.35794965  1
  S  S17  1  0.33377839  0.83185421  0.45143181  1
  S  S18  1  0.33333300  0.33333300  0.45198781  1
  S  S19  1  0.83185421  0.83436641  0.45143181  1
  S  S20  1  0.83436641  0.33377839  0.45143181  1
