# generated using pymatgen
data_Ni4Sn3(Se3S4)2
_symmetry_space_group_name_H-M   'P 1'
_cell_length_a   6.69942677
_cell_length_b   6.69942700
_cell_length_c   30.00000000
_cell_angle_alpha   90.00000000
_cell_angle_beta   90.00000000
_cell_angle_gamma   60.00000382
_symmetry_Int_Tables_number   1
_chemical_formula_structural   Ni4Sn3(Se3S4)2
_chemical_formula_sum   'Ni4 Sn3 Se6 S8'
_cell_volume   1166.07693979
_cell_formula_units_Z   1
loop_
 _symmetry_equiv_pos_site_id
 _symmetry_equiv_pos_as_xyz
  1  'x, y, z'
loop_
 _atom_site_type_symbol
 _atom_site_label
 _atom_site_symmetry_multiplicity
 _atom_site_fract_x
 _atom_site_fract_y
 _atom_site_fract_z
 _atom_site_occupancy
  Ni  Ni0  1  0.00000000  0.00000000  0.59183126  1
  Ni  Ni1  1  0.99946500  0.50237957  0.59181869  1
  Ni  Ni2  1  0.49815543  0.99946500  0.59181869  1
  Ni  Ni3  1  0.50237957  0.49815543  0.59181869  1
  Sn  Sn4  1  0.66666700  0.66666700  0.39501007  1
  Sn  Sn5  1  0.33333300  0.33333300  0.39657725  1
  Sn  Sn6  1  0.00000000  0.00000000  0.39631281  1
  Se  Se7  1  0.33651151  0.99620561  0.44908372  1
  Se  Se8  1  0.66627821  0.00310087  0.34286341  1
  Se  Se9  1  0.33062092  0.66627821  0.34286341  1
  Se  Se10  1  0.00310087  0.33062092  0.34286341  1
  Se  Se11  1  0.99620561  0.66728288  0.44908372  1
  Se  Se12  1  0.66728288  0.33651151  0.44908372  1
  S  S13  1  0.33333300  0.33333300  0.63062395  1
  S  S14  1  0.33332116  0.83058410  0.63079715  1
  S  S15  1  0.66666700  0.66666700  0.55286650  1
  S  S16  1  0.66630180  0.16342308  0.55330509  1
  S  S17  1  0.17027613  0.66630180  0.55330509  1
  S  S18  1  0.16342308  0.17027613  0.55330509  1
  S  S19  1  0.83609374  0.33332116  0.63079715  1
  S  S20  1  0.83058410  0.83609374  0.63079715  1
