# generated using pymatgen
data_TiTe4Pt
_symmetry_space_group_name_H-M   'P 1'
_cell_length_a   6.71427413
_cell_length_b   6.71427413
_cell_length_c   30.00000000
_cell_angle_alpha   90.00000000
_cell_angle_beta   90.00000000
_cell_angle_gamma   59.99999874
_symmetry_Int_Tables_number   1
_chemical_formula_structural   TiTe4Pt
_chemical_formula_sum   'Ti3 Te12 Pt3'
_cell_volume   1171.25111654
_cell_formula_units_Z   3
loop_
 _symmetry_equiv_pos_site_id
 _symmetry_equiv_pos_as_xyz
  1  'x, y, z'
loop_
 _atom_site_type_symbol
 _atom_site_label
 _atom_site_symmetry_multiplicity
 _atom_site_fract_x
 _atom_site_fract_y
 _atom_site_fract_z
 _atom_site_occupancy
  Ti  Ti0  1  0.66666700  0.66666700  0.39589714  1
  Ti  Ti1  1  0.33333300  0.33333300  0.39589714  1
  Ti  Ti2  1  0.00000000  0.00000000  0.39589714  1
  Te  Te3  1  0.00000000  0.33333300  0.63939477  1
  Te  Te4  1  0.00000000  0.33333300  0.45366221  1
  Te  Te5  1  0.66666700  0.00000000  0.33953304  1
  Te  Te6  1  0.33333300  0.66666700  0.33953304  1
  Te  Te7  1  0.00000000  0.33333300  0.33953304  1
  Te  Te8  1  0.66666700  0.00000000  0.45366221  1
  Te  Te9  1  0.66666700  0.00000000  0.63939477  1
  Te  Te10  1  0.33333300  0.66666700  0.63939477  1
  Te  Te11  1  0.00000000  0.66666700  0.54169591  1
  Te  Te12  1  0.66666700  0.33333300  0.54169591  1
  Te  Te13  1  0.33333300  0.00000000  0.54169591  1
  Te  Te14  1  0.33333300  0.66666700  0.45366221  1
  Pt  Pt15  1  0.66666700  0.66666700  0.58949093  1
  Pt  Pt16  1  0.33333300  0.33333300  0.58949093  1
  Pt  Pt17  1  0.00000000  0.00000000  0.58949093  1
