# generated using pymatgen
data_Ge3Mo4(S3O4)2
_symmetry_space_group_name_H-M   'P 1'
_cell_length_a   5.80050912
_cell_length_b   5.80050912
_cell_length_c   30.00000000
_cell_angle_alpha   90.00000000
_cell_angle_beta   90.00000000
_cell_angle_gamma   60.00001002
_symmetry_Int_Tables_number   1
_chemical_formula_structural   Ge3Mo4(S3O4)2
_chemical_formula_sum   'Ge3 Mo4 S6 O8'
_cell_volume   874.14636984
_cell_formula_units_Z   1
loop_
 _symmetry_equiv_pos_site_id
 _symmetry_equiv_pos_as_xyz
  1  'x, y, z'
loop_
 _atom_site_type_symbol
 _atom_site_label
 _atom_site_symmetry_multiplicity
 _atom_site_fract_x
 _atom_site_fract_y
 _atom_site_fract_z
 _atom_site_occupancy
  Ge  Ge0  1  0.00000000  0.00000000  0.59562458  1
  Ge  Ge1  1  0.33333300  0.33333300  0.59561129  1
  Ge  Ge2  1  0.66666700  0.66666700  0.59594837  1
  Mo  Mo3  1  0.50020795  0.49984683  0.40771556  1
  Mo  Mo4  1  0.49984683  0.99994522  0.40771556  1
  Mo  Mo5  1  0.00000000  0.00000000  0.40767671  1
  Mo  Mo6  1  0.99994522  0.50020795  0.40771556  1
  S  S7  1  0.66664768  0.00073427  0.64318811  1
  S  S8  1  0.00073427  0.33261805  0.64318811  1
  S  S9  1  0.99874742  0.66667689  0.54837596  1
  S  S10  1  0.66667689  0.33457569  0.54837596  1
  S  S11  1  0.33457569  0.99874742  0.54837596  1
  S  S12  1  0.33261805  0.66664768  0.64318811  1
  O  O13  1  0.66666432  0.16582404  0.44817053  1
  O  O14  1  0.16652530  0.16681607  0.36717471  1
  O  O15  1  0.16681607  0.66665963  0.36717471  1
  O  O16  1  0.66665963  0.16652530  0.36717471  1
  O  O17  1  0.66666700  0.66666700  0.36721665  1
  O  O18  1  0.16582404  0.16751263  0.44817053  1
  O  O19  1  0.16751263  0.66666432  0.44817053  1
  O  O20  1  0.66666700  0.66666700  0.44830276  1
