# generated using pymatgen
data_Ti7Te8(Pt2O7)2
_symmetry_space_group_name_H-M   'P 1'
_cell_length_a   7.96607584
_cell_length_b   7.96607500
_cell_length_c   30.00000000
_cell_angle_alpha   90.00000000
_cell_angle_beta   90.00000000
_cell_angle_gamma   59.99999934
_symmetry_Int_Tables_number   1
_chemical_formula_structural   Ti7Te8(Pt2O7)2
_chemical_formula_sum   'Ti7 Te8 Pt4 O14'
_cell_volume   1648.69648187
_cell_formula_units_Z   1
loop_
 _symmetry_equiv_pos_site_id
 _symmetry_equiv_pos_as_xyz
  1  'x, y, z'
loop_
 _atom_site_type_symbol
 _atom_site_label
 _atom_site_symmetry_multiplicity
 _atom_site_fract_x
 _atom_site_fract_y
 _atom_site_fract_z
 _atom_site_occupancy
  Ti  Ti0  1  0.71648227  0.42746388  0.41259855  1
  Ti  Ti1  1  0.85605385  0.71648227  0.41259855  1
  Ti  Ti2  1  0.42746388  0.85605385  0.41259855  1
  Ti  Ti3  1  0.28835913  0.57026733  0.41296681  1
  Ti  Ti4  1  0.00000000  0.00000000  0.41423497  1
  Ti  Ti5  1  0.14137354  0.28835913  0.41296681  1
  Ti  Ti6  1  0.57026733  0.14137354  0.41296681  1
  Te  Te7  1  0.16629638  0.16817404  0.55075497  1
  Te  Te8  1  0.16817404  0.66553058  0.55075497  1
  Te  Te9  1  0.66553058  0.16629638  0.55075497  1
  Te  Te10  1  0.66666700  0.66666700  0.55063483  1
  Te  Te11  1  0.33270692  0.83296787  0.64460907  1
  Te  Te12  1  0.33333300  0.33333300  0.64473892  1
  Te  Te13  1  0.83296787  0.83432421  0.64460907  1
  Te  Te14  1  0.83432421  0.33270692  0.64460907  1
  Pt  Pt15  1  0.00000000  0.00000000  0.59722581  1
  Pt  Pt16  1  0.49948545  0.99993590  0.59763400  1
  Pt  Pt17  1  0.99993590  0.50057865  0.59763400  1
  Pt  Pt18  1  0.50057865  0.49948545  0.59763400  1
  O  O19  1  0.61924180  0.90448776  0.44594734  1
  O  O20  1  0.90448776  0.47627044  0.44594734  1
  O  O21  1  0.47627044  0.61924180  0.44594734  1
  O  O22  1  0.76293805  0.19076167  0.44581417  1
  O  O23  1  0.33333300  0.33333300  0.44612873  1
  O  O24  1  0.19076167  0.04630028  0.44581417  1
  O  O25  1  0.38104854  0.09553063  0.38094080  1
  O  O26  1  0.66666700  0.66666700  0.38067077  1
  O  O27  1  0.23868903  0.80847849  0.38084762  1
  O  O28  1  0.52342083  0.38104854  0.38094080  1
  O  O29  1  0.09553063  0.52342083  0.38094080  1
  O  O30  1  0.95283248  0.23868903  0.38084762  1
  O  O31  1  0.80847849  0.95283248  0.38084762  1
  O  O32  1  0.04630028  0.76293805  0.44581417  1
