# generated using pymatgen
data_Zr4Mo7(Se4O7)2
_symmetry_space_group_name_H-M   'P 1'
_cell_length_a   7.43100183
_cell_length_b   7.43100199
_cell_length_c   30.00000000
_cell_angle_alpha   90.00000000
_cell_angle_beta   90.00000000
_cell_angle_gamma   60.00000567
_symmetry_Int_Tables_number   1
_chemical_formula_structural   Zr4Mo7(Se4O7)2
_chemical_formula_sum   'Zr4 Mo7 Se8 O14'
_cell_volume   1434.65229250
_cell_formula_units_Z   1
loop_
 _symmetry_equiv_pos_site_id
 _symmetry_equiv_pos_as_xyz
  1  'x, y, z'
loop_
 _atom_site_type_symbol
 _atom_site_label
 _atom_site_symmetry_multiplicity
 _atom_site_fract_x
 _atom_site_fract_y
 _atom_site_fract_z
 _atom_site_occupancy
  Zr  Zr0  1  0.00000000  0.00000000  0.39670238  1
  Zr  Zr1  1  0.50058859  0.99991746  0.39597257  1
  Zr  Zr2  1  0.49949395  0.50058859  0.39597257  1
  Zr  Zr3  1  0.99991746  0.49949395  0.39597257  1
  Mo  Mo4  1  0.71433910  0.85702408  0.59310376  1
  Mo  Mo5  1  0.00000000  0.00000000  0.59340800  1
  Mo  Mo6  1  0.42863683  0.71433910  0.59310376  1
  Mo  Mo7  1  0.57145223  0.28556970  0.59307694  1
  Mo  Mo8  1  0.14297807  0.57145223  0.59307694  1
  Mo  Mo9  1  0.28556970  0.14297807  0.59307694  1
  Mo  Mo10  1  0.85702408  0.42863683  0.59310376  1
  Se  Se11  1  0.16574090  0.66537743  0.45184002  1
  Se  Se12  1  0.66666700  0.66666700  0.33993335  1
  Se  Se13  1  0.66736469  0.16671973  0.34006693  1
  Se  Se14  1  0.16591658  0.66736469  0.34006693  1
  Se  Se15  1  0.16671973  0.16591658  0.34006693  1
  Se  Se16  1  0.16888267  0.16574090  0.45184002  1
  Se  Se17  1  0.66666700  0.66666700  0.45190785  1
  Se  Se18  1  0.66537743  0.16888267  0.45184002  1
  O  O19  1  0.47618782  0.90485322  0.63444339  1
  O  O20  1  0.90485322  0.61895896  0.63444339  1
  O  O21  1  0.76150132  0.04754288  0.63460017  1
  O  O22  1  0.33333300  0.33333300  0.63441633  1
  O  O23  1  0.04754288  0.19095579  0.63460017  1
  O  O24  1  0.76277975  0.04687346  0.55191027  1
  O  O25  1  0.90511882  0.61895399  0.55165978  1
  O  O26  1  0.47592719  0.90511882  0.55165978  1
  O  O27  1  0.61895399  0.47592719  0.55165978  1
  O  O28  1  0.19034678  0.76277975  0.55191027  1
  O  O29  1  0.33333300  0.33333300  0.55155362  1
  O  O30  1  0.04687346  0.19034678  0.55191027  1
  O  O31  1  0.61895896  0.47618782  0.63444339  1
  O  O32  1  0.19095579  0.76150132  0.63460017  1
