# generated using pymatgen
data_Cr7Te14(MoO2)12
_symmetry_space_group_name_H-M   'P 1'
_cell_length_a   9.47331076
_cell_length_b   9.47331076
_cell_length_c   30.00000000
_cell_angle_alpha   90.00000000
_cell_angle_beta   90.00000000
_cell_angle_gamma   59.99999467
_symmetry_Int_Tables_number   1
_chemical_formula_structural   Cr7Te14(MoO2)12
_chemical_formula_sum   'Cr7 Te14 Mo12 O24'
_cell_volume   2331.60743471
_cell_formula_units_Z   1
loop_
 _symmetry_equiv_pos_site_id
 _symmetry_equiv_pos_as_xyz
  1  'x, y, z'
loop_
 _atom_site_type_symbol
 _atom_site_label
 _atom_site_symmetry_multiplicity
 _atom_site_fract_x
 _atom_site_fract_y
 _atom_site_fract_z
 _atom_site_occupancy
  Cr  Cr0  1  0.00000000  0.00000000  0.60670125  1
  Cr  Cr1  1  0.14287084  0.28529665  0.60662555  1
  Cr  Cr2  1  0.57183251  0.14287084  0.60662555  1
  Cr  Cr3  1  0.28529665  0.57183251  0.60662555  1
  Cr  Cr4  1  0.71492614  0.42871969  0.60676604  1
  Cr  Cr5  1  0.42871969  0.85635417  0.60676604  1
  Cr  Cr6  1  0.85635417  0.71492614  0.60676604  1
  Te  Te7  1  0.80936830  0.95274996  0.66240304  1
  Te  Te8  1  0.38125076  0.09512684  0.66228268  1
  Te  Te9  1  0.66666700  0.66666700  0.66249171  1
  Te  Te10  1  0.23788175  0.80936830  0.66240304  1
  Te  Te11  1  0.52362240  0.38125076  0.66228268  1
  Te  Te12  1  0.09512684  0.52362240  0.66228268  1
  Te  Te13  1  0.95274996  0.23788175  0.66240304  1
  Te  Te14  1  0.38167453  0.09405941  0.55142496  1
  Te  Te15  1  0.66666700  0.66666700  0.55115479  1
  Te  Te16  1  0.23769694  0.80983900  0.55114231  1
  Te  Te17  1  0.52426606  0.38167453  0.55142496  1
  Te  Te18  1  0.09405941  0.52426606  0.55142496  1
  Te  Te19  1  0.95246406  0.23769694  0.55114231  1
  Te  Te20  1  0.80983900  0.95246406  0.55114231  1
  Mo  Mo21  1  0.66662333  0.16658195  0.40558268  1
  Mo  Mo22  1  0.83332492  0.83336031  0.40596464  1
  Mo  Mo23  1  0.83336031  0.33331378  0.40596464  1
  Mo  Mo24  1  0.66666700  0.66666700  0.40606969  1
  Mo  Mo25  1  0.33331378  0.83332492  0.40596464  1
  Mo  Mo26  1  0.50010365  0.49982362  0.40557534  1
  Mo  Mo27  1  0.33333300  0.33333300  0.40491599  1
  Mo  Mo28  1  0.49982362  0.00007273  0.40557534  1
  Mo  Mo29  1  0.16679572  0.66662333  0.40558268  1
  Mo  Mo30  1  0.16658195  0.16679572  0.40558268  1
  Mo  Mo31  1  0.00007273  0.50010365  0.40557534  1
  Mo  Mo32  1  0.00000000  0.00000000  0.40609609  1
  O  O33  1  0.16774677  0.49915041  0.44752326  1
  O  O34  1  0.33310282  0.16774677  0.44752326  1
  O  O35  1  0.33363414  0.66574410  0.44802579  1
  O  O36  1  0.49915041  0.33310282  0.44752326  1
  O  O37  1  0.49967756  0.83399082  0.44828257  1
  O  O38  1  0.16682683  0.00052786  0.44825592  1
  O  O39  1  0.66633162  0.49967756  0.44828257  1
  O  O40  1  0.83264531  0.16682683  0.44825592  1
  O  O41  1  0.83399082  0.66633162  0.44828257  1
  O  O42  1  0.66574410  0.00062177  0.44802579  1
  O  O43  1  0.99963678  0.83393890  0.36374628  1
  O  O44  1  0.83393890  0.16642432  0.36374628  1
  O  O45  1  0.83275389  0.66712485  0.36374719  1
  O  O46  1  0.66712485  0.50012126  0.36374719  1
  O  O47  1  0.50012126  0.83275389  0.36374719  1
  O  O48  1  0.66718059  0.99939751  0.36353460  1
  O  O49  1  0.50086765  0.33322973  0.36309030  1
  O  O50  1  0.33342190  0.66718059  0.36353460  1
  O  O51  1  0.33322973  0.16590262  0.36309030  1
  O  O52  1  0.16590262  0.50086765  0.36309030  1
  O  O53  1  0.16642432  0.99963678  0.36374628  1
  O  O54  1  0.00062177  0.33363414  0.44802579  1
  O  O55  1  0.99939751  0.33342190  0.36353460  1
  O  O56  1  0.00052786  0.83264531  0.44825592  1
