# generated using pymatgen
data_Hf3Cr4(Se3S4)2
_symmetry_space_group_name_H-M   'P 1'
_cell_length_a   6.23040971
_cell_length_b   6.23040971
_cell_length_c   30.00000000
_cell_angle_alpha   90.00000000
_cell_angle_beta   90.00000000
_cell_angle_gamma   60.00000309
_symmetry_Int_Tables_number   1
_chemical_formula_structural   Hf3Cr4(Se3S4)2
_chemical_formula_sum   'Hf3 Cr4 Se6 S8'
_cell_volume   1008.52138872
_cell_formula_units_Z   1
loop_
 _symmetry_equiv_pos_site_id
 _symmetry_equiv_pos_as_xyz
  1  'x, y, z'
loop_
 _atom_site_type_symbol
 _atom_site_label
 _atom_site_symmetry_multiplicity
 _atom_site_fract_x
 _atom_site_fract_y
 _atom_site_fract_z
 _atom_site_occupancy
  Hf  Hf0  1  0.66666700  0.66666700  0.38434424  1
  Hf  Hf1  1  0.33333300  0.33333300  0.39050852  1
  Hf  Hf2  1  0.00000000  0.00000000  0.39241334  1
  Cr  Cr3  1  0.00000000  0.00000000  0.60488413  1
  Cr  Cr4  1  0.99980145  0.50077320  0.60489490  1
  Cr  Cr5  1  0.49942535  0.99980145  0.60489490  1
  Cr  Cr6  1  0.50077320  0.49942535  0.60489490  1
  Se  Se7  1  0.34110825  0.99402573  0.44537200  1
  Se  Se8  1  0.00588167  0.66821419  0.33258458  1
  Se  Se9  1  0.66821419  0.32590415  0.33258458  1
  Se  Se10  1  0.32590415  0.00588167  0.33258458  1
  Se  Se11  1  0.99402573  0.66486602  0.44537200  1
  Se  Se12  1  0.66486602  0.34110825  0.44537200  1
  S  S13  1  0.16705761  0.66670955  0.65311680  1
  S  S14  1  0.16623384  0.16705761  0.65311680  1
  S  S15  1  0.66666700  0.66666700  0.55658202  1
  S  S16  1  0.66650063  0.16528506  0.55680828  1
  S  S17  1  0.16821530  0.66650063  0.55680828  1
  S  S18  1  0.16528506  0.16821530  0.55680828  1
  S  S19  1  0.66666700  0.66666700  0.65313107  1
  S  S20  1  0.66670955  0.16623384  0.65311680  1
