# generated using pymatgen
data_TiMoS4
_symmetry_space_group_name_H-M   'P 1'
_cell_length_a   5.71502100
_cell_length_b   5.71502043
_cell_length_c   30.00000000
_cell_angle_alpha   90.00000000
_cell_angle_beta   90.00000000
_cell_angle_gamma   60.00000249
_symmetry_Int_Tables_number   1
_chemical_formula_structural   TiMoS4
_chemical_formula_sum   'Ti3 Mo3 S12'
_cell_volume   848.56968994
_cell_formula_units_Z   3
loop_
 _symmetry_equiv_pos_site_id
 _symmetry_equiv_pos_as_xyz
  1  'x, y, z'
loop_
 _atom_site_type_symbol
 _atom_site_label
 _atom_site_symmetry_multiplicity
 _atom_site_fract_x
 _atom_site_fract_y
 _atom_site_fract_z
 _atom_site_occupancy
  Ti  Ti0  1  0.00000000  0.00000000  0.59640353  1
  Ti  Ti1  1  0.33333300  0.33333300  0.59640353  1
  Ti  Ti2  1  0.66666700  0.66666700  0.59640353  1
  Mo  Mo3  1  0.66666700  0.66666700  0.39879933  1
  Mo  Mo4  1  0.33333300  0.33333300  0.39879933  1
  Mo  Mo5  1  0.00000000  0.00000000  0.39879933  1
  S  S6  1  0.33333300  0.00000000  0.44939524  1
  S  S7  1  0.00000000  0.66666700  0.34797759  1
  S  S8  1  0.66666700  0.33333300  0.34797759  1
  S  S9  1  0.33333300  0.00000000  0.34797759  1
  S  S10  1  0.00000000  0.66666700  0.64546098  1
  S  S11  1  0.66666700  0.33333300  0.64546098  1
  S  S12  1  0.33333300  0.00000000  0.64546098  1
  S  S13  1  0.66666700  0.00000000  0.54773832  1
  S  S14  1  0.33333300  0.66666700  0.54773832  1
  S  S15  1  0.00000000  0.33333300  0.54773832  1
  S  S16  1  0.66666700  0.33333300  0.44939524  1
  S  S17  1  0.00000000  0.66666700  0.44939524  1
