# generated using pymatgen
data_Te6Pt3(WO2)7
_symmetry_space_group_name_H-M   'P 1'
_cell_length_a   7.22470142
_cell_length_b   7.22470127
_cell_length_c   30.00000000
_cell_angle_alpha   90.00000000
_cell_angle_beta   90.00000000
_cell_angle_gamma   60.00000031
_symmetry_Int_Tables_number   1
_chemical_formula_structural   Te6Pt3(WO2)7
_chemical_formula_sum   'Te6 Pt3 W7 O14'
_cell_volume   1356.09990574
_cell_formula_units_Z   1
loop_
 _symmetry_equiv_pos_site_id
 _symmetry_equiv_pos_as_xyz
  1  'x, y, z'
loop_
 _atom_site_type_symbol
 _atom_site_label
 _atom_site_symmetry_multiplicity
 _atom_site_fract_x
 _atom_site_fract_y
 _atom_site_fract_z
 _atom_site_occupancy
  Te  Te0  1  0.33254521  0.99921360  0.54950644  1
  Te  Te1  1  0.66824119  0.33254521  0.54950644  1
  Te  Te2  1  0.99921360  0.66824119  0.54950644  1
  Te  Te3  1  0.33373324  0.66584204  0.63668042  1
  Te  Te4  1  0.66584204  0.00042472  0.63668042  1
  Te  Te5  1  0.00042472  0.33373324  0.63668042  1
  Pt  Pt6  1  0.00000000  0.00000000  0.59308230  1
  Pt  Pt7  1  0.33333300  0.33333300  0.59251634  1
  Pt  Pt8  1  0.66666700  0.66666700  0.59283464  1
  W  W9  1  0.85711015  0.71428853  0.40544307  1
  W  W10  1  0.71428853  0.42860132  0.40544307  1
  W  W11  1  0.28561816  0.57144071  0.40515539  1
  W  W12  1  0.42860132  0.85711015  0.40544307  1
  W  W13  1  0.14294113  0.28561816  0.40515539  1
  W  W14  1  0.00000000  0.00000000  0.40557903  1
  W  W15  1  0.57144071  0.14294113  0.40515539  1
  O  O16  1  0.66666700  0.66666700  0.44814503  1
  O  O17  1  0.23831634  0.80891021  0.44804837  1
  O  O18  1  0.52300375  0.38104429  0.44772989  1
  O  O19  1  0.09595196  0.52300375  0.44772989  1
  O  O20  1  0.95277346  0.23831634  0.44804837  1
  O  O21  1  0.81009267  0.95212164  0.36293585  1
  O  O22  1  0.38117774  0.09467725  0.36272866  1
  O  O23  1  0.23778569  0.81009267  0.36293585  1
  O  O24  1  0.52414501  0.38117774  0.36272866  1
  O  O25  1  0.09467725  0.52414501  0.36272866  1
  O  O26  1  0.95212164  0.23778569  0.36293585  1
  O  O27  1  0.38104429  0.09595196  0.44772989  1
  O  O28  1  0.66666700  0.66666700  0.36299442  1
  O  O29  1  0.80891021  0.95277346  0.44804837  1
