# generated using pymatgen
data_Hf7W12(S7O12)2
_symmetry_space_group_name_H-M   'P 1'
_cell_length_a   9.59264000
_cell_length_b   9.59264006
_cell_length_c   30.00000000
_cell_angle_alpha   90.00000000
_cell_angle_beta   90.00000000
_cell_angle_gamma   60.00000021
_symmetry_Int_Tables_number   1
_chemical_formula_structural   Hf7W12(S7O12)2
_chemical_formula_sum   'Hf7 W12 S14 O24'
_cell_volume   2390.71707062
_cell_formula_units_Z   1
loop_
 _symmetry_equiv_pos_site_id
 _symmetry_equiv_pos_as_xyz
  1  'x, y, z'
loop_
 _atom_site_type_symbol
 _atom_site_label
 _atom_site_symmetry_multiplicity
 _atom_site_fract_x
 _atom_site_fract_y
 _atom_site_fract_z
 _atom_site_occupancy
  Hf  Hf0  1  0.00000000  0.00000000  0.59506181  1
  Hf  Hf1  1  0.14331673  0.28545661  0.59697146  1
  Hf  Hf2  1  0.28545661  0.57122666  0.59697146  1
  Hf  Hf3  1  0.57122666  0.14331673  0.59697146  1
  Hf  Hf4  1  0.42830765  0.85721517  0.60487984  1
  Hf  Hf5  1  0.71447718  0.42830765  0.60487984  1
  Hf  Hf6  1  0.85721517  0.71447718  0.60487984  1
  W  W7  1  0.50019205  0.99994322  0.40642200  1
  W  W8  1  0.99994322  0.49986473  0.40642200  1
  W  W9  1  0.33333300  0.33333300  0.40674030  1
  W  W10  1  0.66667515  0.16669291  0.40667244  1
  W  W11  1  0.66666700  0.66666700  0.40605577  1
  W  W12  1  0.83317887  0.33337419  0.40644801  1
  W  W13  1  0.33337419  0.83344595  0.40644801  1
  W  W14  1  0.16669291  0.16663294  0.40667244  1
  W  W15  1  0.83344595  0.83317887  0.40644801  1
  W  W16  1  0.16663294  0.66667515  0.40667244  1
  W  W17  1  0.00000000  0.00000000  0.40679003  1
  W  W18  1  0.49986473  0.50019205  0.40642200  1
  S  S19  1  0.90672926  0.47481334  0.65337794  1
  S  S20  1  0.61845740  0.90672926  0.65337794  1
  S  S21  1  0.19554942  0.04409949  0.54800772  1
  S  S22  1  0.47808382  0.61879793  0.55101188  1
  S  S23  1  0.76035109  0.19554942  0.54800772  1
  S  S24  1  0.61879793  0.90311825  0.55101188  1
  S  S25  1  0.90311825  0.47808382  0.55101188  1
  S  S26  1  0.33333300  0.33333300  0.54637113  1
  S  S27  1  0.18494247  0.05127832  0.65034568  1
  S  S28  1  0.33333300  0.33333300  0.64882941  1
  S  S29  1  0.47481334  0.61845740  0.65337794  1
  S  S30  1  0.76377921  0.18494247  0.65034568  1
  S  S31  1  0.04409949  0.76035109  0.54800772  1
  S  S32  1  0.05127832  0.76377921  0.65034568  1
  O  O33  1  0.16623349  0.33346573  0.44865753  1
  O  O34  1  0.50030078  0.16623349  0.44865753  1
  O  O35  1  0.99962419  0.66626559  0.44847187  1
  O  O36  1  0.33346573  0.50030078  0.44865753  1
  O  O37  1  0.16713249  0.83322634  0.44868531  1
  O  O38  1  0.50046451  0.66693078  0.44816663  1
  O  O39  1  0.83260471  0.50046451  0.44816663  1
  O  O40  1  0.99964117  0.16713249  0.44868531  1
  O  O41  1  0.33411022  0.99962419  0.44847187  1
  O  O42  1  0.66626559  0.33411022  0.44847187  1
  O  O43  1  0.83353730  0.00017844  0.36466647  1
  O  O44  1  0.33300146  0.49996190  0.36462505  1
  O  O45  1  0.33307763  0.00037381  0.36450073  1
  O  O46  1  0.83372244  0.49946443  0.36424963  1
  O  O47  1  0.49946443  0.66681313  0.36424963  1
  O  O48  1  0.16628426  0.83353730  0.36466647  1
  O  O49  1  0.66654856  0.33307763  0.36450073  1
  O  O50  1  0.00037381  0.66654856  0.36450073  1
  O  O51  1  0.49996190  0.16703663  0.36462505  1
  O  O52  1  0.16703663  0.33300146  0.36462505  1
  O  O53  1  0.00017844  0.16628426  0.36466647  1
  O  O54  1  0.66693078  0.83260471  0.44816663  1
  O  O55  1  0.66681313  0.83372244  0.36424963  1
  O  O56  1  0.83322634  0.99964117  0.44868531  1
