# generated using pymatgen
data_Cr4Pt3(Se4S3)2
_symmetry_space_group_name_H-M   'P 1'
_cell_length_a   6.30422612
_cell_length_b   6.30422600
_cell_length_c   30.00000000
_cell_angle_alpha   90.00000000
_cell_angle_beta   90.00000000
_cell_angle_gamma   60.00000060
_symmetry_Int_Tables_number   1
_chemical_formula_structural   Cr4Pt3(Se4S3)2
_chemical_formula_sum   'Cr4 Pt3 Se8 S6'
_cell_volume   1032.56035062
_cell_formula_units_Z   1
loop_
 _symmetry_equiv_pos_site_id
 _symmetry_equiv_pos_as_xyz
  1  'x, y, z'
loop_
 _atom_site_type_symbol
 _atom_site_label
 _atom_site_symmetry_multiplicity
 _atom_site_fract_x
 _atom_site_fract_y
 _atom_site_fract_z
 _atom_site_occupancy
  Cr  Cr0  1  0.99965217  0.50151561  0.39318571  1
  Cr  Cr1  1  0.50151561  0.49883222  0.39318571  1
  Cr  Cr2  1  0.49883222  0.99965217  0.39318571  1
  Cr  Cr3  1  0.00000000  0.00000000  0.39314163  1
  Pt  Pt4  1  0.00000000  0.00000000  0.59358868  1
  Pt  Pt5  1  0.66666700  0.66666700  0.59469013  1
  Pt  Pt6  1  0.33333300  0.33333300  0.59376079  1
  Se  Se7  1  0.66652919  0.16427134  0.44580552  1
  Se  Se8  1  0.16573691  0.16766873  0.34039059  1
  Se  Se9  1  0.16766873  0.66659536  0.34039059  1
  Se  Se10  1  0.66659536  0.16573691  0.34039059  1
  Se  Se11  1  0.66666700  0.66666700  0.34037115  1
  Se  Se12  1  0.16427134  0.16920047  0.44580552  1
  Se  Se13  1  0.16920047  0.66652919  0.44580552  1
  Se  Se14  1  0.66666700  0.66666700  0.44617010  1
  S  S15  1  0.99720136  0.66625456  0.55467014  1
  S  S16  1  0.33095968  0.66697457  0.63372021  1
  S  S17  1  0.66697457  0.00206575  0.63372021  1
  S  S18  1  0.00206575  0.33095968  0.63372021  1
  S  S19  1  0.33654408  0.99720136  0.55467014  1
  S  S20  1  0.66625456  0.33654408  0.55467014  1
