# generated using pymatgen
data_TiSnS4
_symmetry_space_group_name_H-M   'P 1'
_cell_length_a   3.55551361
_cell_length_b   3.55551300
_cell_length_c   30.00000000
_cell_angle_alpha   90.00000000
_cell_angle_beta   90.00000000
_cell_angle_gamma   59.99999639
_symmetry_Int_Tables_number   1
_chemical_formula_structural   TiSnS4
_chemical_formula_sum   'Ti1 Sn1 S4'
_cell_volume   328.44033560
_cell_formula_units_Z   1
loop_
 _symmetry_equiv_pos_site_id
 _symmetry_equiv_pos_as_xyz
  1  'x, y, z'
loop_
 _atom_site_type_symbol
 _atom_site_label
 _atom_site_symmetry_multiplicity
 _atom_site_fract_x
 _atom_site_fract_y
 _atom_site_fract_z
 _atom_site_occupancy
  Ti  Ti0  1  0.00000000  0.00000000  0.40368588  1
  Sn  Sn1  1  0.00000000  0.00000000  0.59823443  1
  S  S2  1  0.33333300  0.33333300  0.54751077  1
  S  S3  1  0.66666700  0.66666700  0.64907619  1
  S  S4  1  0.33333300  0.33333300  0.35840249  1
  S  S5  1  0.66666700  0.66666700  0.44871725  1
