# generated using pymatgen
data_Te2PtWSe2
_symmetry_space_group_name_H-M   'P 1'
_cell_length_a   6.31842786
_cell_length_b   6.31842786
_cell_length_c   30.00000000
_cell_angle_alpha   90.00000000
_cell_angle_beta   90.00000000
_cell_angle_gamma   60.00000145
_symmetry_Int_Tables_number   1
_chemical_formula_structural   Te2PtWSe2
_chemical_formula_sum   'Te6 Pt3 W3 Se6'
_cell_volume   1037.21778670
_cell_formula_units_Z   3
loop_
 _symmetry_equiv_pos_site_id
 _symmetry_equiv_pos_as_xyz
  1  'x, y, z'
loop_
 _atom_site_type_symbol
 _atom_site_label
 _atom_site_symmetry_multiplicity
 _atom_site_fract_x
 _atom_site_fract_y
 _atom_site_fract_z
 _atom_site_occupancy
  Te  Te0  1  0.00000000  0.66666700  0.43380593  1
  Te  Te1  1  0.33333300  0.00000000  0.43380593  1
  Te  Te2  1  0.00000000  0.66666700  0.31579769  1
  Te  Te3  1  0.66666700  0.33333300  0.31579769  1
  Te  Te4  1  0.33333300  0.00000000  0.31579769  1
  Te  Te5  1  0.66666700  0.33333300  0.43380593  1
  Pt  Pt6  1  0.00000000  0.00000000  0.60847865  1
  Pt  Pt7  1  0.66666700  0.66666700  0.60847865  1
  Pt  Pt8  1  0.33333300  0.33333300  0.60847865  1
  W  W9  1  0.00000000  0.00000000  0.37481559  1
  W  W10  1  0.33333300  0.33333300  0.37481559  1
  W  W11  1  0.66666700  0.66666700  0.37481559  1
  Se  Se12  1  0.66666700  0.00000000  0.65403627  1
  Se  Se13  1  0.00000000  0.66666700  0.56305587  1
  Se  Se14  1  0.66666700  0.33333300  0.56305587  1
  Se  Se15  1  0.33333300  0.00000000  0.56305587  1
  Se  Se16  1  0.33333300  0.66666700  0.65403627  1
  Se  Se17  1  0.00000000  0.33333300  0.65403627  1
