# generated using pymatgen
data_Ti4Mo3(Se3O4)2
_symmetry_space_group_name_H-M   'P 1'
_cell_length_a   5.86095035
_cell_length_b   5.86095100
_cell_length_c   30.00000000
_cell_angle_alpha   90.00000000
_cell_angle_beta   90.00000000
_cell_angle_gamma   60.00000200
_symmetry_Int_Tables_number   1
_chemical_formula_structural   Ti4Mo3(Se3O4)2
_chemical_formula_sum   'Ti4 Mo3 Se6 O8'
_cell_volume   892.45849623
_cell_formula_units_Z   1
loop_
 _symmetry_equiv_pos_site_id
 _symmetry_equiv_pos_as_xyz
  1  'x, y, z'
loop_
 _atom_site_type_symbol
 _atom_site_label
 _atom_site_symmetry_multiplicity
 _atom_site_fract_x
 _atom_site_fract_y
 _atom_site_fract_z
 _atom_site_occupancy
  Ti  Ti0  1  0.00000000  0.00000000  0.58048084  1
  Ti  Ti1  1  0.99765244  0.50093733  0.58720578  1
  Ti  Ti2  1  0.50141023  0.99765244  0.58720578  1
  Ti  Ti3  1  0.50093733  0.50141023  0.58720578  1
  Mo  Mo4  1  0.66666700  0.66666700  0.39289964  1
  Mo  Mo5  1  0.33333300  0.33333300  0.39315366  1
  Mo  Mo6  1  0.00000000  0.00000000  0.39319638  1
  Se  Se7  1  0.33457970  0.99896171  0.44771030  1
  Se  Se8  1  0.00050480  0.66675540  0.33832630  1
  Se  Se9  1  0.66675540  0.33273980  0.33832630  1
  Se  Se10  1  0.33273980  0.00050480  0.33832630  1
  Se  Se11  1  0.99896171  0.66645858  0.44771030  1
  Se  Se12  1  0.66645858  0.33457970  0.44771030  1
  O  O13  1  0.33333300  0.33333300  0.61979163  1
  O  O14  1  0.32979325  0.83514820  0.61883995  1
  O  O15  1  0.66666700  0.66666700  0.55250422  1
  O  O16  1  0.66298869  0.16785148  0.55151254  1
  O  O17  1  0.16916083  0.66298869  0.55151254  1
  O  O18  1  0.16785148  0.16916083  0.55151254  1
  O  O19  1  0.83505756  0.32979325  0.61883995  1
  O  O20  1  0.83514820  0.83505756  0.61883995  1
