# generated using pymatgen
data_Ni7Te6Pt3O14
_symmetry_space_group_name_H-M   'P 1'
_cell_length_a   7.22930926
_cell_length_b   7.22930913
_cell_length_c   30.00000000
_cell_angle_alpha   90.00000000
_cell_angle_beta   90.00000000
_cell_angle_gamma   60.00000261
_symmetry_Int_Tables_number   1
_chemical_formula_structural   Ni7Te6Pt3O14
_chemical_formula_sum   'Ni7 Te6 Pt3 O14'
_cell_volume   1357.83030651
_cell_formula_units_Z   1
loop_
 _symmetry_equiv_pos_site_id
 _symmetry_equiv_pos_as_xyz
  1  'x, y, z'
loop_
 _atom_site_type_symbol
 _atom_site_label
 _atom_site_symmetry_multiplicity
 _atom_site_fract_x
 _atom_site_fract_y
 _atom_site_fract_z
 _atom_site_occupancy
  Ni  Ni0  1  0.00000000  0.00000000  0.57747390  1
  Ni  Ni1  1  0.14465936  0.28405560  0.57882045  1
  Ni  Ni2  1  0.28405560  0.57128504  0.57882045  1
  Ni  Ni3  1  0.57128504  0.14465936  0.57882045  1
  Ni  Ni4  1  0.42750731  0.85809613  0.57804021  1
  Ni  Ni5  1  0.71439656  0.42750731  0.57804021  1
  Ni  Ni6  1  0.85809613  0.71439656  0.57804021  1
  Te  Te7  1  0.33203349  0.67050411  0.46700769  1
  Te  Te8  1  0.00251931  0.66341926  0.38049917  1
  Te  Te9  1  0.66341926  0.33406142  0.38049917  1
  Te  Te10  1  0.33406142  0.00251931  0.38049917  1
  Te  Te11  1  0.67050411  0.99746240  0.46700769  1
  Te  Te12  1  0.99746240  0.33203349  0.46700769  1
  Pt  Pt13  1  0.00000000  0.00000000  0.42320995  1
  Pt  Pt14  1  0.66666700  0.66666700  0.42472108  1
  Pt  Pt15  1  0.33333300  0.33333300  0.42553109  1
  O  O16  1  0.19091331  0.04897803  0.54385718  1
  O  O17  1  0.33333300  0.33333300  0.54525412  1
  O  O18  1  0.47370073  0.61884474  0.54370412  1
  O  O19  1  0.76010866  0.19091331  0.54385718  1
  O  O20  1  0.90745453  0.47370073  0.54370412  1
  O  O21  1  0.04897803  0.76010866  0.54385718  1
  O  O22  1  0.95385310  0.23577726  0.61111550  1
  O  O23  1  0.66666700  0.66666700  0.61045663  1
  O  O24  1  0.81036964  0.95385310  0.61111550  1
  O  O25  1  0.52318719  0.38286296  0.61177975  1
  O  O26  1  0.38286296  0.09394985  0.61177975  1
  O  O27  1  0.61884474  0.90745453  0.54370412  1
  O  O28  1  0.09394985  0.52318719  0.61177975  1
  O  O29  1  0.23577726  0.81036964  0.61111550  1
