# generated using pymatgen
data_Ti4Te6Pd3Se8
_symmetry_space_group_name_H-M   'P 1'
_cell_length_a   6.97179871
_cell_length_b   6.97179900
_cell_length_c   30.00000000
_cell_angle_alpha   90.00000000
_cell_angle_beta   90.00000000
_cell_angle_gamma   60.00000338
_symmetry_Int_Tables_number   1
_chemical_formula_structural   Ti4Te6Pd3Se8
_chemical_formula_sum   'Ti4 Te6 Pd3 Se8'
_cell_volume   1262.82042814
_cell_formula_units_Z   1
loop_
 _symmetry_equiv_pos_site_id
 _symmetry_equiv_pos_as_xyz
  1  'x, y, z'
loop_
 _atom_site_type_symbol
 _atom_site_label
 _atom_site_symmetry_multiplicity
 _atom_site_fract_x
 _atom_site_fract_y
 _atom_site_fract_z
 _atom_site_occupancy
  Ti  Ti0  1  0.99774525  0.49874814  0.39716407  1
  Ti  Ti1  1  0.49874814  0.50350662  0.39716407  1
  Ti  Ti2  1  0.50350662  0.99774525  0.39716407  1
  Ti  Ti3  1  0.00000000  0.00000000  0.39870778  1
  Te  Te4  1  0.99056300  0.34289485  0.54507481  1
  Te  Te5  1  0.34289485  0.66654215  0.54507481  1
  Te  Te6  1  0.66654215  0.99056300  0.54507481  1
  Te  Te7  1  0.32361751  0.00921766  0.63596762  1
  Te  Te8  1  0.66716483  0.32361751  0.63596762  1
  Te  Te9  1  0.00921766  0.66716483  0.63596762  1
  Pd  Pd10  1  0.00000000  0.00000000  0.58785203  1
  Pd  Pd11  1  0.66666700  0.66666700  0.59408544  1
  Pd  Pd12  1  0.33333300  0.33333300  0.58826726  1
  Se  Se13  1  0.16766571  0.16501316  0.34529029  1
  Se  Se14  1  0.16501316  0.66732213  0.34529029  1
  Se  Se15  1  0.66732213  0.16766571  0.34529029  1
  Se  Se16  1  0.66666700  0.66666700  0.34429919  1
  Se  Se17  1  0.17042043  0.16339604  0.45147646  1
  Se  Se18  1  0.16339604  0.66618453  0.45147646  1
  Se  Se19  1  0.66618453  0.17042043  0.45147646  1
  Se  Se20  1  0.66666700  0.66666700  0.45202354  1
