# generated using pymatgen
data_Ti4Ni3(Se3O4)2
_symmetry_space_group_name_H-M   'P 1'
_cell_length_a   6.05288000
_cell_length_b   6.05288013
_cell_length_c   30.00000000
_cell_angle_alpha   90.00000000
_cell_angle_beta   90.00000000
_cell_angle_gamma   60.00000073
_symmetry_Int_Tables_number   1
_chemical_formula_structural   Ti4Ni3(Se3O4)2
_chemical_formula_sum   'Ti4 Ni3 Se6 O8'
_cell_volume   951.86646631
_cell_formula_units_Z   1
loop_
 _symmetry_equiv_pos_site_id
 _symmetry_equiv_pos_as_xyz
  1  'x, y, z'
loop_
 _atom_site_type_symbol
 _atom_site_label
 _atom_site_symmetry_multiplicity
 _atom_site_fract_x
 _atom_site_fract_y
 _atom_site_fract_z
 _atom_site_occupancy
  Ti  Ti0  1  0.00393051  0.50055935  0.41331302  1
  Ti  Ti1  1  0.50055935  0.49551014  0.41331302  1
  Ti  Ti2  1  0.49551014  0.00393051  0.41331302  1
  Ti  Ti3  1  0.00000000  0.00000000  0.41972747  1
  Ni  Ni4  1  0.00000000  0.00000000  0.59166613  1
  Ni  Ni5  1  0.66666700  0.66666700  0.59177643  1
  Ni  Ni6  1  0.33333300  0.33333300  0.59263359  1
  Se  Se7  1  0.66385355  0.00236928  0.55014520  1
  Se  Se8  1  0.33301222  0.99837313  0.63412190  1
  Se  Se9  1  0.66861466  0.33301222  0.63412190  1
  Se  Se10  1  0.99837313  0.66861466  0.63412190  1
  Se  Se11  1  0.00236928  0.33377717  0.55014520  1
  Se  Se12  1  0.33377717  0.66385355  0.55014520  1
  O  O13  1  0.83496436  0.83244192  0.44762156  1
  O  O14  1  0.16704823  0.16728920  0.38289950  1
  O  O15  1  0.16728920  0.66566357  0.38289950  1
  O  O16  1  0.66566357  0.16704823  0.38289950  1
  O  O17  1  0.66666700  0.66666700  0.38288122  1
  O  O18  1  0.33259271  0.83496436  0.44762156  1
  O  O19  1  0.33333300  0.33333300  0.44723160  1
  O  O20  1  0.83244192  0.33259271  0.44762156  1
