# generated using pymatgen
data_Pd3W4(S3O4)2
_symmetry_space_group_name_H-M   'P 1'
_cell_length_a   5.90959100
_cell_length_b   5.90959131
_cell_length_c   30.00000000
_cell_angle_alpha   90.00000000
_cell_angle_beta   90.00000000
_cell_angle_gamma   59.99999613
_symmetry_Int_Tables_number   1
_chemical_formula_structural   Pd3W4(S3O4)2
_chemical_formula_sum   'Pd3 W4 S6 O8'
_cell_volume   907.33307271
_cell_formula_units_Z   1
loop_
 _symmetry_equiv_pos_site_id
 _symmetry_equiv_pos_as_xyz
  1  'x, y, z'
loop_
 _atom_site_type_symbol
 _atom_site_label
 _atom_site_symmetry_multiplicity
 _atom_site_fract_x
 _atom_site_fract_y
 _atom_site_fract_z
 _atom_site_occupancy
  Pd  Pd0  1  0.00000000  0.00000000  0.59050352  1
  Pd  Pd1  1  0.33333300  0.33333300  0.59054518  1
  Pd  Pd2  1  0.66666700  0.66666700  0.59124168  1
  W  W3  1  0.49987466  0.50017640  0.40716068  1
  W  W4  1  0.50017640  0.99994895  0.40716068  1
  W  W5  1  0.00000000  0.00000000  0.40714494  1
  W  W6  1  0.99994895  0.49987466  0.40716068  1
  S  S7  1  0.66674909  0.33138757  0.63484296  1
  S  S8  1  0.00186335  0.66674909  0.63484296  1
  S  S9  1  0.66658142  0.99747100  0.54697144  1
  S  S10  1  0.33594758  0.66658142  0.54697144  1
  S  S11  1  0.99747100  0.33594758  0.54697144  1
  S  S12  1  0.33138757  0.00186335  0.63484296  1
  O  O13  1  0.66665649  0.16765359  0.44735194  1
  O  O14  1  0.16672756  0.16656977  0.36688813  1
  O  O15  1  0.16656977  0.66670367  0.36688813  1
  O  O16  1  0.66670367  0.16672756  0.36688813  1
  O  O17  1  0.66666700  0.66666700  0.36692295  1
  O  O18  1  0.16765359  0.16569092  0.44735194  1
  O  O19  1  0.16569092  0.66665649  0.44735194  1
  O  O20  1  0.66666700  0.66666700  0.44747329  1
