# generated using pymatgen
data_Mo7(S3O4)2
_symmetry_space_group_name_H-M   'P 1'
_cell_length_a   5.57651642
_cell_length_b   5.57651600
_cell_length_c   30.00000000
_cell_angle_alpha   90.00000000
_cell_angle_beta   90.00000000
_cell_angle_gamma   60.00000246
_symmetry_Int_Tables_number   1
_chemical_formula_structural   Mo7(S3O4)2
_chemical_formula_sum   'Mo7 S6 O8'
_cell_volume   807.93762759
_cell_formula_units_Z   1
loop_
 _symmetry_equiv_pos_site_id
 _symmetry_equiv_pos_as_xyz
  1  'x, y, z'
loop_
 _atom_site_type_symbol
 _atom_site_label
 _atom_site_symmetry_multiplicity
 _atom_site_fract_x
 _atom_site_fract_y
 _atom_site_fract_z
 _atom_site_occupancy
  Mo  Mo0  1  0.00000000  0.00000000  0.59154560  1
  Mo  Mo1  1  0.99997211  0.50021674  0.59152608  1
  Mo  Mo2  1  0.49981115  0.99997211  0.59152608  1
  Mo  Mo3  1  0.50021674  0.49981115  0.59152608  1
  Mo  Mo4  1  0.66666700  0.66666700  0.39960007  1
  Mo  Mo5  1  0.33333300  0.33333300  0.39985283  1
  Mo  Mo6  1  0.00000000  0.00000000  0.39985929  1
  S  S7  1  0.33457633  0.99878200  0.45129039  1
  S  S8  1  0.00051307  0.66668682  0.34809537  1
  S  S9  1  0.66668682  0.33280010  0.34809537  1
  S  S10  1  0.33280010  0.00051307  0.34809537  1
  S  S11  1  0.99878200  0.66664167  0.45129039  1
  S  S12  1  0.66664167  0.33457633  0.45129039  1
  O  O13  1  0.16681430  0.66667910  0.63310647  1
  O  O14  1  0.16650759  0.16681430  0.63310647  1
  O  O15  1  0.66666700  0.66666700  0.54989226  1
  O  O16  1  0.66663438  0.16590627  0.55002058  1
  O  O17  1  0.16746035  0.66663438  0.55002058  1
  O  O18  1  0.16590627  0.16746035  0.55002058  1
  O  O19  1  0.66666700  0.66666700  0.63307227  1
  O  O20  1  0.66667910  0.16650759  0.63310647  1
