# generated using pymatgen
data_W7(S3O4)2
_symmetry_space_group_name_H-M   'P 1'
_cell_length_a   5.59133512
_cell_length_b   5.59133500
_cell_length_c   30.00000000
_cell_angle_alpha   90.00000000
_cell_angle_beta   90.00000000
_cell_angle_gamma   59.99999479
_symmetry_Int_Tables_number   1
_chemical_formula_structural   W7(S3O4)2
_chemical_formula_sum   'W7 S6 O8'
_cell_volume   812.23724423
_cell_formula_units_Z   1
loop_
 _symmetry_equiv_pos_site_id
 _symmetry_equiv_pos_as_xyz
  1  'x, y, z'
loop_
 _atom_site_type_symbol
 _atom_site_label
 _atom_site_symmetry_multiplicity
 _atom_site_fract_x
 _atom_site_fract_y
 _atom_site_fract_z
 _atom_site_occupancy
  W  W0  1  0.00000000  0.00000000  0.59296055  1
  W  W1  1  0.99996947  0.50012600  0.59295232  1
  W  W2  1  0.49990452  0.99996947  0.59295232  1
  W  W3  1  0.50012600  0.49990452  0.59295232  1
  W  W4  1  0.66666700  0.66666700  0.39796681  1
  W  W5  1  0.33333300  0.33333300  0.39815916  1
  W  W6  1  0.00000000  0.00000000  0.39816497  1
  S  S7  1  0.33426483  0.99907414  0.44976205  1
  S  S8  1  0.00047082  0.66669795  0.34630781  1
  S  S9  1  0.66669795  0.33283123  0.34630781  1
  S  S10  1  0.33283123  0.00047082  0.34630781  1
  S  S11  1  0.99907414  0.66666103  0.44976205  1
  S  S12  1  0.66666103  0.33426483  0.44976205  1
  O  O13  1  0.16671273  0.66669460  0.63468951  1
  O  O14  1  0.16659367  0.16671273  0.63468951  1
  O  O15  1  0.66666700  0.66666700  0.55119933  1
  O  O16  1  0.66663022  0.16619297  0.55129955  1
  O  O17  1  0.16717780  0.66663022  0.55129955  1
  O  O18  1  0.16619297  0.16717780  0.55129955  1
  O  O19  1  0.66666700  0.66666700  0.63466548  1
  O  O20  1  0.66669460  0.16659367  0.63468951  1
