# generated using pymatgen
data_Zr3Sn4(S3O4)2
_symmetry_space_group_name_H-M   'P 1'
_cell_length_a   6.31685037
_cell_length_b   6.31685100
_cell_length_c   30.00000000
_cell_angle_alpha   90.00000000
_cell_angle_beta   90.00000000
_cell_angle_gamma   60.00000194
_symmetry_Int_Tables_number   1
_chemical_formula_structural   Zr3Sn4(S3O4)2
_chemical_formula_sum   'Zr3 Sn4 S6 O8'
_cell_volume   1036.70004566
_cell_formula_units_Z   1
loop_
 _symmetry_equiv_pos_site_id
 _symmetry_equiv_pos_as_xyz
  1  'x, y, z'
loop_
 _atom_site_type_symbol
 _atom_site_label
 _atom_site_symmetry_multiplicity
 _atom_site_fract_x
 _atom_site_fract_y
 _atom_site_fract_z
 _atom_site_occupancy
  Zr  Zr0  1  0.66666700  0.66666700  0.38903411  1
  Zr  Zr1  1  0.33333300  0.33333300  0.40225788  1
  Zr  Zr2  1  0.00000000  0.00000000  0.40075397  1
  Sn  Sn3  1  0.00000000  0.00000000  0.58608268  1
  Sn  Sn4  1  0.99987424  0.49977305  0.58567354  1
  Sn  Sn5  1  0.50035270  0.99987424  0.58567354  1
  Sn  Sn6  1  0.49977305  0.50035270  0.58567354  1
  S  S7  1  0.99018240  0.34203115  0.44878689  1
  S  S8  1  0.66580198  0.01007281  0.34567545  1
  S  S9  1  0.32412521  0.66580198  0.34567545  1
  S  S10  1  0.01007281  0.32412521  0.34567545  1
  S  S11  1  0.66778644  0.99018240  0.44878689  1
  S  S12  1  0.34203115  0.66778644  0.44878689  1
  O  O13  1  0.33333300  0.33333300  0.62047662  1
  O  O14  1  0.33390034  0.83289678  0.62063323  1
  O  O15  1  0.66666700  0.66666700  0.55080318  1
  O  O16  1  0.66721258  0.16731215  0.55105173  1
  O  O17  1  0.16547627  0.66721258  0.55105173  1
  O  O18  1  0.16731215  0.16547627  0.55105173  1
  O  O19  1  0.83320188  0.33390034  0.62063323  1
  O  O20  1  0.83289678  0.83320188  0.62063323  1
