# generated using pymatgen
data_NiPd(SO)2
_symmetry_space_group_name_H-M   'P 1'
_cell_length_a   5.58361214
_cell_length_b   5.58361214
_cell_length_c   30.00000000
_cell_angle_alpha   90.00000000
_cell_angle_beta   90.00000000
_cell_angle_gamma   59.99999833
_symmetry_Int_Tables_number   1
_chemical_formula_structural   NiPd(SO)2
_chemical_formula_sum   'Ni3 Pd3 S6 O6'
_cell_volume   809.99505020
_cell_formula_units_Z   3
loop_
 _symmetry_equiv_pos_site_id
 _symmetry_equiv_pos_as_xyz
  1  'x, y, z'
loop_
 _atom_site_type_symbol
 _atom_site_label
 _atom_site_symmetry_multiplicity
 _atom_site_fract_x
 _atom_site_fract_y
 _atom_site_fract_z
 _atom_site_occupancy
  Ni  Ni0  1  0.00000000  0.00000000  0.57860764  1
  Ni  Ni1  1  0.33333300  0.33333300  0.57860764  1
  Ni  Ni2  1  0.66666700  0.66666700  0.57860764  1
  Pd  Pd3  1  0.66666700  0.66666700  0.42775154  1
  Pd  Pd4  1  0.33333300  0.33333300  0.42775154  1
  Pd  Pd5  1  0.00000000  0.00000000  0.42775154  1
  S  S6  1  0.66666700  0.00000000  0.61971038  1
  S  S7  1  0.00000000  0.33333300  0.61971038  1
  S  S8  1  0.00000000  0.66666700  0.53815248  1
  S  S9  1  0.66666700  0.33333300  0.53815248  1
  S  S10  1  0.33333300  0.00000000  0.53815248  1
  S  S11  1  0.33333300  0.66666700  0.61971038  1
  O  O12  1  0.66666700  0.00000000  0.45779121  1
  O  O13  1  0.33333300  0.00000000  0.39764474  1
  O  O14  1  0.66666700  0.33333300  0.39764474  1
  O  O15  1  0.00000000  0.66666700  0.39764474  1
  O  O16  1  0.33333300  0.66666700  0.45779121  1
  O  O17  1  0.00000000  0.33333300  0.45779121  1
