# generated using pymatgen
data_Zr3(Te7Mo2)2
_symmetry_space_group_name_H-M   'P 1'
_cell_length_a   6.94230879
_cell_length_b   6.94230900
_cell_length_c   30.00000000
_cell_angle_alpha   90.00000000
_cell_angle_beta   90.00000000
_cell_angle_gamma   60.00000376
_symmetry_Int_Tables_number   1
_chemical_formula_structural   Zr3(Te7Mo2)2
_chemical_formula_sum   'Zr3 Te14 Mo4'
_cell_volume   1252.15983740
_cell_formula_units_Z   1
loop_
 _symmetry_equiv_pos_site_id
 _symmetry_equiv_pos_as_xyz
  1  'x, y, z'
loop_
 _atom_site_type_symbol
 _atom_site_label
 _atom_site_symmetry_multiplicity
 _atom_site_fract_x
 _atom_site_fract_y
 _atom_site_fract_z
 _atom_site_occupancy
  Zr  Zr0  1  0.66666700  0.66666700  0.37010820  1
  Zr  Zr1  1  0.33333300  0.33333300  0.38158404  1
  Zr  Zr2  1  0.00000000  0.00000000  0.38272828  1
  Te  Te3  1  0.66668461  0.16549693  0.68060125  1
  Te  Te4  1  0.34755126  0.98702205  0.43890988  1
  Te  Te5  1  0.01236720  0.66778620  0.31714923  1
  Te  Te6  1  0.66778620  0.31984660  0.31714923  1
  Te  Te7  1  0.31984660  0.01236720  0.31714923  1
  Te  Te8  1  0.66666700  0.66666700  0.68064750  1
  Te  Te9  1  0.66542668  0.34755126  0.43890988  1
  Te  Te10  1  0.98702205  0.66542668  0.43890988  1
  Te  Te11  1  0.16549693  0.16781946  0.68060125  1
  Te  Te12  1  0.66666700  0.66666700  0.55843681  1
  Te  Te13  1  0.66640779  0.16429179  0.55861714  1
  Te  Te14  1  0.16930142  0.66640779  0.55861714  1
  Te  Te15  1  0.16429179  0.16930142  0.55861714  1
  Te  Te16  1  0.16781946  0.66668461  0.68060125  1
  Mo  Mo17  1  0.50180959  0.49831983  0.61962306  1
  Mo  Mo18  1  0.49831983  0.99987058  0.61962306  1
  Mo  Mo19  1  0.99987058  0.50180959  0.61962306  1
  Mo  Mo20  1  0.00000000  0.00000000  0.61956348  1
