# generated using pymatgen
data_Hf4Te6Pd3O8
_symmetry_space_group_name_H-M   'P 1'
_cell_length_a   6.73039694
_cell_length_b   6.73039694
_cell_length_c   30.00000000
_cell_angle_alpha   90.00000000
_cell_angle_beta   90.00000000
_cell_angle_gamma   59.99999075
_symmetry_Int_Tables_number   1
_chemical_formula_structural   Hf4Te6Pd3O8
_chemical_formula_sum   'Hf4 Te6 Pd3 O8'
_cell_volume   1176.88276540
_cell_formula_units_Z   1
loop_
 _symmetry_equiv_pos_site_id
 _symmetry_equiv_pos_as_xyz
  1  'x, y, z'
loop_
 _atom_site_type_symbol
 _atom_site_label
 _atom_site_symmetry_multiplicity
 _atom_site_fract_x
 _atom_site_fract_y
 _atom_site_fract_z
 _atom_site_occupancy
  Hf  Hf0  1  0.00000000  0.00000000  0.58624451  1
  Hf  Hf1  1  0.99938390  0.50078996  0.58566769  1
  Hf  Hf2  1  0.49982614  0.99938390  0.58566769  1
  Hf  Hf3  1  0.50078996  0.49982614  0.58566769  1
  Te  Te4  1  0.34667028  0.66345315  0.45113668  1
  Te  Te5  1  0.00826954  0.66953004  0.35322169  1
  Te  Te6  1  0.66953004  0.32220043  0.35322169  1
  Te  Te7  1  0.32220043  0.00826954  0.35322169  1
  Te  Te8  1  0.66345315  0.98987657  0.45113668  1
  Te  Te9  1  0.98987657  0.34667028  0.45113668  1
  Pd  Pd10  1  0.00000000  0.00000000  0.40440273  1
  Pd  Pd11  1  0.33333300  0.33333300  0.40324344  1
  Pd  Pd12  1  0.66666700  0.66666700  0.39938040  1
  O  O13  1  0.33456613  0.83254838  0.61617297  1
  O  O14  1  0.83288448  0.33456613  0.61617297  1
  O  O15  1  0.66666700  0.66666700  0.55556722  1
  O  O16  1  0.66839923  0.16715274  0.55591424  1
  O  O17  1  0.16444903  0.66839923  0.55591424  1
  O  O18  1  0.16715274  0.16444903  0.55591424  1
  O  O19  1  0.33333300  0.33333300  0.61565887  1
  O  O20  1  0.83254838  0.83288448  0.61617297  1
