# generated using pymatgen
data_Ni7(S3O4)2
_symmetry_space_group_name_H-M   'P 1'
_cell_length_a   5.74002571
_cell_length_b   5.74002571
_cell_length_c   30.00000000
_cell_angle_alpha   90.00000000
_cell_angle_beta   90.00000000
_cell_angle_gamma   60.00000334
_symmetry_Int_Tables_number   1
_chemical_formula_structural   Ni7(S3O4)2
_chemical_formula_sum   'Ni7 S6 O8'
_cell_volume   856.01145499
_cell_formula_units_Z   1
loop_
 _symmetry_equiv_pos_site_id
 _symmetry_equiv_pos_as_xyz
  1  'x, y, z'
loop_
 _atom_site_type_symbol
 _atom_site_label
 _atom_site_symmetry_multiplicity
 _atom_site_fract_x
 _atom_site_fract_y
 _atom_site_fract_z
 _atom_site_occupancy
  Ni  Ni0  1  0.00000000  0.00000000  0.57870133  1
  Ni  Ni1  1  0.99977661  0.49989637  0.57876695  1
  Ni  Ni2  1  0.50032702  0.99977661  0.57876695  1
  Ni  Ni3  1  0.49989637  0.50032702  0.57876695  1
  Ni  Ni4  1  0.66666700  0.66666700  0.41725685  1
  Ni  Ni5  1  0.33333300  0.33333300  0.41809189  1
  Ni  Ni6  1  0.00000000  0.00000000  0.41819222  1
  S  S7  1  0.33586822  0.66655757  0.45686874  1
  S  S8  1  0.00175482  0.66679370  0.37842926  1
  S  S9  1  0.66679370  0.33145148  0.37842926  1
  S  S10  1  0.33145148  0.00175482  0.37842926  1
  S  S11  1  0.99757421  0.33586822  0.45686874  1
  S  S12  1  0.66655757  0.99757421  0.45686874  1
  O  O13  1  0.33333300  0.33333300  0.60953108  1
  O  O14  1  0.33275741  0.83465307  0.60966370  1
  O  O15  1  0.66666700  0.66666700  0.54768372  1
  O  O16  1  0.66661998  0.16771911  0.54766132  1
  O  O17  1  0.16566191  0.66661998  0.54766132  1
  O  O18  1  0.16771911  0.16566191  0.54766132  1
  O  O19  1  0.83258851  0.33275741  0.60966370  1
  O  O20  1  0.83465307  0.83258851  0.60966370  1
