# generated using pymatgen
data_Zr3(W2Se7)2
_symmetry_space_group_name_H-M   'P 1'
_cell_length_a   6.52486848
_cell_length_b   6.52486900
_cell_length_c   30.00000000
_cell_angle_alpha   90.00000000
_cell_angle_beta   90.00000000
_cell_angle_gamma   60.00000244
_symmetry_Int_Tables_number   1
_chemical_formula_structural   Zr3(W2Se7)2
_chemical_formula_sum   'Zr3 W4 Se14'
_cell_volume   1106.10270924
_cell_formula_units_Z   1
loop_
 _symmetry_equiv_pos_site_id
 _symmetry_equiv_pos_as_xyz
  1  'x, y, z'
loop_
 _atom_site_type_symbol
 _atom_site_label
 _atom_site_symmetry_multiplicity
 _atom_site_fract_x
 _atom_site_fract_y
 _atom_site_fract_z
 _atom_site_occupancy
  Zr  Zr0  1  0.66666700  0.66666700  0.38174230  1
  Zr  Zr1  1  0.33333300  0.33333300  0.39178474  1
  Zr  Zr2  1  0.00000000  0.00000000  0.39240058  1
  W  W3  1  0.00000000  0.00000000  0.61188576  1
  W  W4  1  0.99967980  0.50122954  0.61191913  1
  W  W5  1  0.49909066  0.99967980  0.61191913  1
  W  W6  1  0.50122954  0.49909066  0.61191913  1
  Se  Se7  1  0.34240489  0.99148225  0.44420199  1
  Se  Se8  1  0.00847435  0.66691892  0.33306909  1
  Se  Se9  1  0.66691892  0.32460673  0.33306909  1
  Se  Se10  1  0.32460673  0.00847435  0.33306909  1
  Se  Se11  1  0.66664119  0.16576365  0.66840588  1
  Se  Se12  1  0.66611286  0.34240489  0.44420199  1
  Se  Se13  1  0.16759615  0.66664119  0.66840588  1
  Se  Se14  1  0.16576365  0.16759615  0.66840588  1
  Se  Se15  1  0.66666700  0.66666700  0.55527688  1
  Se  Se16  1  0.66643968  0.16505733  0.55550797  1
  Se  Se17  1  0.16850399  0.66643968  0.55550797  1
  Se  Se18  1  0.16505733  0.16850399  0.55550797  1
  Se  Se19  1  0.66666700  0.66666700  0.66844254  1
  Se  Se20  1  0.99148225  0.66611286  0.44420199  1
