# generated using pymatgen
data_Ti7Sn4(Se4O7)2
_symmetry_space_group_name_H-M   'P 1'
_cell_length_a   7.81351566
_cell_length_b   7.81351611
_cell_length_c   30.00000000
_cell_angle_alpha   90.00000000
_cell_angle_beta   90.00000000
_cell_angle_gamma   60.00000253
_symmetry_Int_Tables_number   1
_chemical_formula_structural   Ti7Sn4(Se4O7)2
_chemical_formula_sum   'Ti7 Sn4 Se8 O14'
_cell_volume   1586.15234076
_cell_formula_units_Z   1
loop_
 _symmetry_equiv_pos_site_id
 _symmetry_equiv_pos_as_xyz
  1  'x, y, z'
loop_
 _atom_site_type_symbol
 _atom_site_label
 _atom_site_symmetry_multiplicity
 _atom_site_fract_x
 _atom_site_fract_y
 _atom_site_fract_z
 _atom_site_occupancy
  Ti  Ti0  1  0.71290442  0.42917817  0.41391896  1
  Ti  Ti1  1  0.85791741  0.71290442  0.41391896  1
  Ti  Ti2  1  0.42917817  0.85791741  0.41391896  1
  Ti  Ti3  1  0.28446279  0.57200142  0.41411664  1
  Ti  Ti4  1  0.57200142  0.14353579  0.41411664  1
  Ti  Ti5  1  0.14353579  0.28446279  0.41411664  1
  Ti  Ti6  1  0.00000000  0.00000000  0.41030599  1
  Sn  Sn7  1  0.00000000  0.00000000  0.60397276  1
  Sn  Sn8  1  0.49995653  0.50000795  0.60406370  1
  Sn  Sn9  1  0.50000795  0.00003552  0.60406370  1
  Sn  Sn10  1  0.00003552  0.49995653  0.60406370  1
  Se  Se11  1  0.33325500  0.83351586  0.65670659  1
  Se  Se12  1  0.33333300  0.33333300  0.65683417  1
  Se  Se13  1  0.83351586  0.83322814  0.65670659  1
  Se  Se14  1  0.83322814  0.33325500  0.65670659  1
  Se  Se15  1  0.66614219  0.16639967  0.55158263  1
  Se  Se16  1  0.16745914  0.66614219  0.55158263  1
  Se  Se17  1  0.16639967  0.16745914  0.55158263  1
  Se  Se18  1  0.66666700  0.66666700  0.55145557  1
  O  O19  1  0.33333300  0.33333300  0.44738516  1
  O  O20  1  0.76459796  0.18895267  0.44614500  1
  O  O21  1  0.90482793  0.47596933  0.44718561  1
  O  O22  1  0.18895267  0.04644937  0.44614500  1
  O  O23  1  0.47596933  0.61920274  0.44718561  1
  O  O24  1  0.80730763  0.95231490  0.37972932  1
  O  O25  1  0.09562134  0.52313784  0.38068824  1
  O  O26  1  0.66666700  0.66666700  0.38060631  1
  O  O27  1  0.24037747  0.80730763  0.37972932  1
  O  O28  1  0.52313784  0.38124082  0.38068824  1
  O  O29  1  0.95231490  0.24037747  0.37972932  1
  O  O30  1  0.61920274  0.90482793  0.44718561  1
  O  O31  1  0.38124082  0.09562134  0.38068824  1
  O  O32  1  0.04644937  0.76459796  0.44614500  1
