# generated using pymatgen
data_TiNiSe4
_symmetry_space_group_name_H-M   'P 1'
_cell_length_a   6.09153470
_cell_length_b   6.09153470
_cell_length_c   30.00000000
_cell_angle_alpha   90.00000000
_cell_angle_beta   90.00000000
_cell_angle_gamma   59.99999240
_symmetry_Int_Tables_number   1
_chemical_formula_structural   TiNiSe4
_chemical_formula_sum   'Ti3 Ni3 Se12'
_cell_volume   964.06273981
_cell_formula_units_Z   3
loop_
 _symmetry_equiv_pos_site_id
 _symmetry_equiv_pos_as_xyz
  1  'x, y, z'
loop_
 _atom_site_type_symbol
 _atom_site_label
 _atom_site_symmetry_multiplicity
 _atom_site_fract_x
 _atom_site_fract_y
 _atom_site_fract_z
 _atom_site_occupancy
  Ti  Ti0  1  0.66666700  0.66666700  0.40389671  1
  Ti  Ti1  1  0.33333300  0.33333300  0.40389671  1
  Ti  Ti2  1  0.00000000  0.00000000  0.40389671  1
  Ni  Ni3  1  0.00000000  0.00000000  0.58263316  1
  Ni  Ni4  1  0.33333300  0.33333300  0.58263316  1
  Ni  Ni5  1  0.66666700  0.66666700  0.58263316  1
  Se  Se6  1  0.00000000  0.33333300  0.45758283  1
  Se  Se7  1  0.66666700  0.00000000  0.35148703  1
  Se  Se8  1  0.33333300  0.66666700  0.35148703  1
  Se  Se9  1  0.00000000  0.33333300  0.35148703  1
  Se  Se10  1  0.00000000  0.33333300  0.62470200  1
  Se  Se11  1  0.66666700  0.00000000  0.62470200  1
  Se  Se12  1  0.33333300  0.66666700  0.62470200  1
  Se  Se13  1  0.00000000  0.66666700  0.54215628  1
  Se  Se14  1  0.66666700  0.33333300  0.54215628  1
  Se  Se15  1  0.33333300  0.00000000  0.54215628  1
  Se  Se16  1  0.33333300  0.66666700  0.45758283  1
  Se  Se17  1  0.66666700  0.00000000  0.45758283  1
