# generated using pymatgen
data_ZrTe2PtS2
_symmetry_space_group_name_H-M   'P 1'
_cell_length_a   3.74641203
_cell_length_b   3.74641200
_cell_length_c   30.00000000
_cell_angle_alpha   90.00000000
_cell_angle_beta   90.00000000
_cell_angle_gamma   60.00000027
_symmetry_Int_Tables_number   1
_chemical_formula_structural   ZrTe2PtS2
_chemical_formula_sum   'Zr1 Te2 Pt1 S2'
_cell_volume   364.65566331
_cell_formula_units_Z   1
loop_
 _symmetry_equiv_pos_site_id
 _symmetry_equiv_pos_as_xyz
  1  'x, y, z'
loop_
 _atom_site_type_symbol
 _atom_site_label
 _atom_site_symmetry_multiplicity
 _atom_site_fract_x
 _atom_site_fract_y
 _atom_site_fract_z
 _atom_site_occupancy
  Zr  Zr0  1  0.00000000  0.00000000  0.37969643  1
  Te  Te1  1  0.33333300  0.33333300  0.31523428  1
  Te  Te2  1  0.33333300  0.33333300  0.44335129  1
  Pt  Pt3  1  0.00000000  0.00000000  0.59939316  1
  S  S4  1  0.33333300  0.33333300  0.56187894  1
  S  S5  1  0.66666700  0.66666700  0.63720490  1
