# generated using pymatgen
data_Cr4Sn3Se14
_symmetry_space_group_name_H-M   'P 1'
_cell_length_a   6.55601788
_cell_length_b   6.55601788
_cell_length_c   30.00000000
_cell_angle_alpha   90.00000000
_cell_angle_beta   90.00000000
_cell_angle_gamma   60.00000119
_symmetry_Int_Tables_number   1
_chemical_formula_structural   Cr4Sn3Se14
_chemical_formula_sum   'Cr4 Sn3 Se14'
_cell_volume   1116.68877499
_cell_formula_units_Z   1
loop_
 _symmetry_equiv_pos_site_id
 _symmetry_equiv_pos_as_xyz
  1  'x, y, z'
loop_
 _atom_site_type_symbol
 _atom_site_label
 _atom_site_symmetry_multiplicity
 _atom_site_fract_x
 _atom_site_fract_y
 _atom_site_fract_z
 _atom_site_occupancy
  Cr  Cr0  1  0.99965828  0.50128216  0.39049809  1
  Cr  Cr1  1  0.50128216  0.49905955  0.39049809  1
  Cr  Cr2  1  0.49905955  0.99965828  0.39049809  1
  Cr  Cr3  1  0.00000000  0.00000000  0.39043038  1
  Sn  Sn4  1  0.00000000  0.00000000  0.60962633  1
  Sn  Sn5  1  0.66666700  0.66666700  0.61028604  1
  Sn  Sn6  1  0.33333300  0.33333300  0.60957655  1
  Se  Se7  1  0.99780502  0.66676888  0.55585074  1
  Se  Se8  1  0.33181404  0.66661996  0.66379909  1
  Se  Se9  1  0.66661996  0.00156600  0.66379909  1
  Se  Se10  1  0.00156600  0.33181404  0.66379909  1
  Se  Se11  1  0.33542610  0.99780502  0.55585074  1
  Se  Se12  1  0.66664521  0.16461895  0.44190254  1
  Se  Se13  1  0.16585062  0.16756066  0.33889148  1
  Se  Se14  1  0.16756066  0.66658971  0.33889148  1
  Se  Se15  1  0.66658971  0.16585062  0.33889148  1
  Se  Se16  1  0.66666700  0.66666700  0.33891230  1
  Se  Se17  1  0.16461895  0.16873684  0.44190254  1
  Se  Se18  1  0.16873684  0.66664521  0.44190254  1
  Se  Se19  1  0.66676888  0.33542610  0.55585074  1
  Se  Se20  1  0.66666700  0.66666700  0.44224852  1
