# generated using pymatgen
data_Cr4Te6W3Se8
_symmetry_space_group_name_H-M   'P 1'
_cell_length_a   6.28462260
_cell_length_b   6.28462200
_cell_length_c   30.00000000
_cell_angle_alpha   90.00000000
_cell_angle_beta   90.00000000
_cell_angle_gamma   60.00000317
_symmetry_Int_Tables_number   1
_chemical_formula_structural   Cr4Te6W3Se8
_chemical_formula_sum   'Cr4 Te6 W3 Se8'
_cell_volume   1026.14861808
_cell_formula_units_Z   1
loop_
 _symmetry_equiv_pos_site_id
 _symmetry_equiv_pos_as_xyz
  1  'x, y, z'
loop_
 _atom_site_type_symbol
 _atom_site_label
 _atom_site_symmetry_multiplicity
 _atom_site_fract_x
 _atom_site_fract_y
 _atom_site_fract_z
 _atom_site_occupancy
  Cr  Cr0  1  0.00000000  0.00000000  0.61182399  1
  Cr  Cr1  1  0.99964349  0.50118072  0.61175453  1
  Cr  Cr2  1  0.49917579  0.99964349  0.61175453  1
  Cr  Cr3  1  0.50118072  0.49917579  0.61175453  1
  Te  Te4  1  0.33518622  0.99830927  0.43916742  1
  Te  Te5  1  0.00068126  0.66672015  0.32069674  1
  Te  Te6  1  0.66672015  0.33259859  0.32069674  1
  Te  Te7  1  0.33259859  0.00068126  0.32069674  1
  Te  Te8  1  0.66650451  0.33518622  0.43916742  1
  Te  Te9  1  0.99830927  0.66650451  0.43916742  1
  W  W10  1  0.00000000  0.00000000  0.38014885  1
  W  W11  1  0.33333300  0.33333300  0.38010556  1
  W  W12  1  0.66666700  0.66666700  0.37967617  1
  Se  Se13  1  0.16607024  0.16738186  0.66464067  1
  Se  Se14  1  0.66666700  0.66666700  0.66465672  1
  Se  Se15  1  0.66666700  0.66666700  0.55863096  1
  Se  Se16  1  0.66656540  0.16476889  0.55903189  1
  Se  Se17  1  0.16866672  0.66656540  0.55903189  1
  Se  Se18  1  0.16476889  0.16866672  0.55903189  1
  Se  Se19  1  0.16738186  0.66654891  0.66464067  1
  Se  Se20  1  0.66654891  0.16607024  0.66464067  1
