# generated using pymatgen
data_TiTe2PbO2
_symmetry_space_group_name_H-M   'P 1'
_cell_length_a   6.17270309
_cell_length_b   6.17270309
_cell_length_c   30.00000000
_cell_angle_alpha   90.00000000
_cell_angle_beta   90.00000000
_cell_angle_gamma   59.99998832
_symmetry_Int_Tables_number   1
_chemical_formula_structural   TiTe2PbO2
_chemical_formula_sum   'Ti3 Te6 Pb3 O6'
_cell_volume   989.92572570
_cell_formula_units_Z   3
loop_
 _symmetry_equiv_pos_site_id
 _symmetry_equiv_pos_as_xyz
  1  'x, y, z'
loop_
 _atom_site_type_symbol
 _atom_site_label
 _atom_site_symmetry_multiplicity
 _atom_site_fract_x
 _atom_site_fract_y
 _atom_site_fract_z
 _atom_site_occupancy
  Ti  Ti0  1  0.66666700  0.66666700  0.39465623  1
  Ti  Ti1  1  0.33333300  0.33333300  0.39465623  1
  Ti  Ti2  1  0.00000000  0.00000000  0.39465623  1
  Te  Te3  1  0.00000000  0.66666700  0.45574360  1
  Te  Te4  1  0.33333300  0.00000000  0.45574360  1
  Te  Te5  1  0.00000000  0.66666700  0.33228970  1
  Te  Te6  1  0.66666700  0.33333300  0.33228970  1
  Te  Te7  1  0.33333300  0.00000000  0.33228970  1
  Te  Te8  1  0.66666700  0.33333300  0.45574360  1
  Pb  Pb9  1  0.00000000  0.00000000  0.58254593  1
  Pb  Pb10  1  0.66666700  0.66666700  0.58254593  1
  Pb  Pb11  1  0.33333300  0.33333300  0.58254593  1
  O  O12  1  0.33333300  0.00000000  0.61489255  1
  O  O13  1  0.66666700  0.00000000  0.54769898  1
  O  O14  1  0.33333300  0.66666700  0.54769898  1
  O  O15  1  0.00000000  0.33333300  0.54769898  1
  O  O16  1  0.66666700  0.33333300  0.61489255  1
  O  O17  1  0.00000000  0.66666700  0.61489255  1
