# generated using pymatgen
data_Te6Mo4Pd3Se8
_symmetry_space_group_name_H-M   'P 1'
_cell_length_a   6.79901773
_cell_length_b   6.79901773
_cell_length_c   30.00000000
_cell_angle_alpha   90.00000000
_cell_angle_beta   90.00000000
_cell_angle_gamma   60.00000260
_symmetry_Int_Tables_number   1
_chemical_formula_structural   Te6Mo4Pd3Se8
_chemical_formula_sum   'Te6 Mo4 Pd3 Se8'
_cell_volume   1201.00342393
_cell_formula_units_Z   1
loop_
 _symmetry_equiv_pos_site_id
 _symmetry_equiv_pos_as_xyz
  1  'x, y, z'
loop_
 _atom_site_type_symbol
 _atom_site_label
 _atom_site_symmetry_multiplicity
 _atom_site_fract_x
 _atom_site_fract_y
 _atom_site_fract_z
 _atom_site_occupancy
  Te  Te0  1  0.34443494  0.98945467  0.55366813  1
  Te  Te1  1  0.66611039  0.34443494  0.55366813  1
  Te  Te2  1  0.98945467  0.66611039  0.55366813  1
  Te  Te3  1  0.32407582  0.66712112  0.64957452  1
  Te  Te4  1  0.66712112  0.00880305  0.64957452  1
  Te  Te5  1  0.00880305  0.32407582  0.64957452  1
  Mo  Mo6  1  0.99979201  0.50154493  0.38807735  1
  Mo  Mo7  1  0.50154493  0.49866305  0.38807735  1
  Mo  Mo8  1  0.49866305  0.99979201  0.38807735  1
  Mo  Mo9  1  0.00000000  0.00000000  0.38816836  1
  Pd  Pd10  1  0.00000000  0.00000000  0.59975548  1
  Pd  Pd11  1  0.66666700  0.66666700  0.60439167  1
  Pd  Pd12  1  0.33333300  0.33333300  0.60008202  1
  Se  Se13  1  0.16533464  0.16782280  0.33352445  1
  Se  Se14  1  0.16782280  0.66684356  0.33352445  1
  Se  Se15  1  0.66684356  0.16533464  0.33352445  1
  Se  Se16  1  0.66666700  0.66666700  0.33347317  1
  Se  Se17  1  0.16429744  0.16932540  0.44259720  1
  Se  Se18  1  0.16932540  0.66637816  0.44259720  1
  Se  Se19  1  0.66637816  0.16429744  0.44259720  1
  Se  Se20  1  0.66666700  0.66666700  0.44283537  1
