# generated using pymatgen
data_TiNiS4
_symmetry_space_group_name_H-M   'P 1'
_cell_length_a   3.38432352
_cell_length_b   3.38432300
_cell_length_c   30.00000000
_cell_angle_alpha   90.00000000
_cell_angle_beta   90.00000000
_cell_angle_gamma   59.99999527
_symmetry_Int_Tables_number   1
_chemical_formula_structural   TiNiS4
_chemical_formula_sum   'Ti1 Ni1 S4'
_cell_volume   297.57438372
_cell_formula_units_Z   1
loop_
 _symmetry_equiv_pos_site_id
 _symmetry_equiv_pos_as_xyz
  1  'x, y, z'
loop_
 _atom_site_type_symbol
 _atom_site_label
 _atom_site_symmetry_multiplicity
 _atom_site_fract_x
 _atom_site_fract_y
 _atom_site_fract_z
 _atom_site_occupancy
  Ti  Ti0  1  0.00000000  0.00000000  0.40730832  1
  Ni  Ni1  1  0.00000000  0.00000000  0.58439129  1
  S  S2  1  0.33333300  0.33333300  0.54661236  1
  S  S3  1  0.66666700  0.66666700  0.62283911  1
  S  S4  1  0.33333300  0.33333300  0.35943114  1
  S  S5  1  0.66666700  0.66666700  0.45484677  1
