# generated using pymatgen
data_Ni3Pd4(Se3O4)2
_symmetry_space_group_name_H-M   'P 1'
_cell_length_a   6.16073970
_cell_length_b   6.16074000
_cell_length_c   30.00000000
_cell_angle_alpha   90.00000000
_cell_angle_beta   90.00000000
_cell_angle_gamma   59.99999839
_symmetry_Int_Tables_number   1
_chemical_formula_structural   Ni3Pd4(Se3O4)2
_chemical_formula_sum   'Ni3 Pd4 Se6 O8'
_cell_volume   986.09241853
_cell_formula_units_Z   1
loop_
 _symmetry_equiv_pos_site_id
 _symmetry_equiv_pos_as_xyz
  1  'x, y, z'
loop_
 _atom_site_type_symbol
 _atom_site_label
 _atom_site_symmetry_multiplicity
 _atom_site_fract_x
 _atom_site_fract_y
 _atom_site_fract_z
 _atom_site_occupancy
  Ni  Ni0  1  0.00000000  0.00000000  0.58251381  1
  Ni  Ni1  1  0.33333300  0.33333300  0.58410331  1
  Ni  Ni2  1  0.66666700  0.66666700  0.58223367  1
  Pd  Pd3  1  0.49980505  0.49997460  0.42142551  1
  Pd  Pd4  1  0.49997460  0.00022036  0.42142551  1
  Pd  Pd5  1  0.00000000  0.00000000  0.42160903  1
  Pd  Pd6  1  0.00022036  0.49980505  0.42142551  1
  Se  Se7  1  0.66932316  0.33407051  0.62396798  1
  Se  Se8  1  0.99660634  0.66932316  0.62396798  1
  Se  Se9  1  0.66308117  0.00462803  0.54244704  1
  Se  Se10  1  0.33229080  0.66308117  0.54244704  1
  Se  Se11  1  0.00462803  0.33229080  0.54244704  1
  Se  Se12  1  0.33407051  0.99660634  0.62396798  1
  O  O13  1  0.83402685  0.83270997  0.45458272  1
  O  O14  1  0.16771145  0.16435057  0.38870435  1
  O  O15  1  0.16435057  0.66793898  0.38870435  1
  O  O16  1  0.66793898  0.16771145  0.38870435  1
  O  O17  1  0.66666700  0.66666700  0.38895777  1
  O  O18  1  0.33326218  0.83402685  0.45458272  1
  O  O19  1  0.33333300  0.33333300  0.45433564  1
  O  O20  1  0.83270997  0.33326218  0.45458272  1
