# generated using pymatgen
data_TiPd(SO)2
_symmetry_space_group_name_H-M   'P 1'
_cell_length_a   3.25444744
_cell_length_b   3.25444800
_cell_length_c   30.00000000
_cell_angle_alpha   90.00000000
_cell_angle_beta   90.00000000
_cell_angle_gamma   59.99999434
_symmetry_Int_Tables_number   1
_chemical_formula_structural   TiPd(SO)2
_chemical_formula_sum   'Ti1 Pd1 S2 O2'
_cell_volume   275.17340683
_cell_formula_units_Z   1
loop_
 _symmetry_equiv_pos_site_id
 _symmetry_equiv_pos_as_xyz
  1  'x, y, z'
loop_
 _atom_site_type_symbol
 _atom_site_label
 _atom_site_symmetry_multiplicity
 _atom_site_fract_x
 _atom_site_fract_y
 _atom_site_fract_z
 _atom_site_occupancy
  Ti  Ti0  1  0.00000000  0.00000000  0.41158618  1
  Pd  Pd1  1  0.00000000  0.00000000  0.57382867  1
  S  S2  1  0.33333300  0.33333300  0.36173776  1
  S  S3  1  0.66666700  0.66666700  0.46080773  1
  O  O4  1  0.33333300  0.33333300  0.54458968  1
  O  O5  1  0.66666700  0.66666700  0.60322098  1
