# generated using pymatgen
data_CrPd(SeO)2
_symmetry_space_group_name_H-M   'P 1'
_cell_length_a   5.45941605
_cell_length_b   5.45941605
_cell_length_c   30.00000000
_cell_angle_alpha   90.00000000
_cell_angle_beta   90.00000000
_cell_angle_gamma   59.99999943
_symmetry_Int_Tables_number   1
_chemical_formula_structural   CrPd(SeO)2
_chemical_formula_sum   'Cr3 Pd3 Se6 O6'
_cell_volume   774.36241896
_cell_formula_units_Z   3
loop_
 _symmetry_equiv_pos_site_id
 _symmetry_equiv_pos_as_xyz
  1  'x, y, z'
loop_
 _atom_site_type_symbol
 _atom_site_label
 _atom_site_symmetry_multiplicity
 _atom_site_fract_x
 _atom_site_fract_y
 _atom_site_fract_z
 _atom_site_occupancy
  Cr  Cr0  1  0.66666700  0.66666700  0.39574641  1
  Cr  Cr1  1  0.33333300  0.33333300  0.39574641  1
  Cr  Cr2  1  0.00000000  0.00000000  0.39574641  1
  Pd  Pd3  1  0.00000000  0.00000000  0.58445892  1
  Pd  Pd4  1  0.33333300  0.33333300  0.58445892  1
  Pd  Pd5  1  0.66666700  0.66666700  0.58445892  1
  Se  Se6  1  0.33333300  0.00000000  0.44860550  1
  Se  Se7  1  0.00000000  0.66666700  0.34292526  1
  Se  Se8  1  0.66666700  0.33333300  0.34292526  1
  Se  Se9  1  0.33333300  0.00000000  0.34292526  1
  Se  Se10  1  0.00000000  0.66666700  0.44860550  1
  Se  Se11  1  0.66666700  0.33333300  0.44860550  1
  O  O12  1  0.66666700  0.00000000  0.61568884  1
  O  O13  1  0.33333300  0.66666700  0.61568884  1
  O  O14  1  0.00000000  0.66666700  0.55310006  1
  O  O15  1  0.66666700  0.33333300  0.55310006  1
  O  O16  1  0.33333300  0.00000000  0.55310006  1
  O  O17  1  0.00000000  0.33333300  0.61568884  1
