# generated using pymatgen
data_Ti4Ge7(Te4O7)2
_symmetry_space_group_name_H-M   'P 1'
_cell_length_a   7.57338551
_cell_length_b   7.57338573
_cell_length_c   30.00000000
_cell_angle_alpha   90.00000000
_cell_angle_beta   90.00000000
_cell_angle_gamma   60.00000563
_symmetry_Int_Tables_number   1
_chemical_formula_structural   Ti4Ge7(Te4O7)2
_chemical_formula_sum   'Ti4 Ge7 Te8 O14'
_cell_volume   1490.15708688
_cell_formula_units_Z   1
loop_
 _symmetry_equiv_pos_site_id
 _symmetry_equiv_pos_as_xyz
  1  'x, y, z'
loop_
 _atom_site_type_symbol
 _atom_site_label
 _atom_site_symmetry_multiplicity
 _atom_site_fract_x
 _atom_site_fract_y
 _atom_site_fract_z
 _atom_site_occupancy
  Ti  Ti0  1  0.00000000  0.00000000  0.38575723  1
  Ti  Ti1  1  0.50065723  0.99986178  0.38525742  1
  Ti  Ti2  1  0.49948099  0.50065723  0.38525742  1
  Ti  Ti3  1  0.99986178  0.49948099  0.38525742  1
  Ge  Ge4  1  0.71436330  0.85704469  0.58908602  1
  Ge  Ge5  1  0.00000000  0.00000000  0.58958331  1
  Ge  Ge6  1  0.42859201  0.71436330  0.58908602  1
  Ge  Ge7  1  0.57139126  0.28567583  0.58902141  1
  Ge  Ge8  1  0.14293291  0.57139126  0.58902141  1
  Ge  Ge9  1  0.28567583  0.14293291  0.58902141  1
  Ge  Ge10  1  0.85704469  0.42859201  0.58908602  1
  Te  Te11  1  0.16574421  0.66560269  0.44399094  1
  Te  Te12  1  0.66666700  0.66666700  0.32634480  1
  Te  Te13  1  0.66720127  0.16662585  0.32645415  1
  Te  Te14  1  0.16617388  0.66720127  0.32645415  1
  Te  Te15  1  0.16662585  0.16617388  0.32645415  1
  Te  Te16  1  0.16865411  0.16574421  0.44399094  1
  Te  Te17  1  0.66666700  0.66666700  0.44408737  1
  Te  Te18  1  0.66560269  0.16865411  0.44399094  1
  O  O19  1  0.66666700  0.66666700  0.62248086  1
  O  O20  1  0.09535149  0.38100563  0.62246051  1
  O  O21  1  0.95245918  0.80889996  0.62268375  1
  O  O22  1  0.52364288  0.09535149  0.62246051  1
  O  O23  1  0.23864086  0.95245918  0.62268375  1
  O  O24  1  0.76271120  0.04699004  0.55583255  1
  O  O25  1  0.90491794  0.61903414  0.55553833  1
  O  O26  1  0.47604792  0.90491794  0.55553833  1
  O  O27  1  0.61903414  0.47604792  0.55553833  1
  O  O28  1  0.19029876  0.76271120  0.55583255  1
  O  O29  1  0.33333300  0.33333300  0.55543618  1
  O  O30  1  0.04699004  0.19029876  0.55583255  1
  O  O31  1  0.80889996  0.23864086  0.62268375  1
  O  O32  1  0.38100563  0.52364288  0.62246051  1
