# generated using pymatgen
data_Hf3W4(Se3S4)2
_symmetry_space_group_name_H-M   'P 1'
_cell_length_a   6.37074251
_cell_length_b   6.37074300
_cell_length_c   30.00000000
_cell_angle_alpha   90.00000000
_cell_angle_beta   90.00000000
_cell_angle_gamma   60.00000264
_symmetry_Int_Tables_number   1
_chemical_formula_structural   Hf3W4(Se3S4)2
_chemical_formula_sum   'Hf3 W4 Se6 S8'
_cell_volume   1054.46467645
_cell_formula_units_Z   1
loop_
 _symmetry_equiv_pos_site_id
 _symmetry_equiv_pos_as_xyz
  1  'x, y, z'
loop_
 _atom_site_type_symbol
 _atom_site_label
 _atom_site_symmetry_multiplicity
 _atom_site_fract_x
 _atom_site_fract_y
 _atom_site_fract_z
 _atom_site_occupancy
  Hf  Hf0  1  0.00000000  0.00000000  0.60674757  1
  Hf  Hf1  1  0.33333300  0.33333300  0.60821558  1
  Hf  Hf2  1  0.66666700  0.66666700  0.61502020  1
  W  W3  1  0.50083559  0.49932559  0.39251756  1
  W  W4  1  0.49932559  0.99983882  0.39251756  1
  W  W5  1  0.00000000  0.00000000  0.39250534  1
  W  W6  1  0.99983882  0.50083559  0.39251756  1
  Se  Se7  1  0.66764012  0.32650655  0.66576122  1
  Se  Se8  1  0.00585333  0.66764012  0.66576122  1
  Se  Se9  1  0.99381048  0.66545666  0.55443308  1
  Se  Se10  1  0.66545666  0.34073286  0.55443308  1
  Se  Se11  1  0.34073286  0.99381048  0.55443308  1
  Se  Se12  1  0.32650655  0.00585333  0.66576122  1
  S  S13  1  0.66655731  0.16528596  0.44462384  1
  S  S14  1  0.16604102  0.16733074  0.34024817  1
  S  S15  1  0.16733074  0.66662924  0.34024817  1
  S  S16  1  0.66662924  0.16604102  0.34024817  1
  S  S17  1  0.66666700  0.66666700  0.34025045  1
  S  S18  1  0.16528596  0.16815773  0.44462384  1
  S  S19  1  0.16815773  0.66655731  0.44462384  1
  S  S20  1  0.66666700  0.66666700  0.44486026  1
