# generated using pymatgen
data_Te6Pt3(WSe2)4
_symmetry_space_group_name_H-M   'P 1'
_cell_length_a   6.79701300
_cell_length_b   6.79701331
_cell_length_c   30.00000000
_cell_angle_alpha   90.00000000
_cell_angle_beta   90.00000000
_cell_angle_gamma   59.99999665
_symmetry_Int_Tables_number   1
_chemical_formula_structural   Te6Pt3(WSe2)4
_chemical_formula_sum   'Te6 Pt3 W4 Se8'
_cell_volume   1200.29526495
_cell_formula_units_Z   1
loop_
 _symmetry_equiv_pos_site_id
 _symmetry_equiv_pos_as_xyz
  1  'x, y, z'
loop_
 _atom_site_type_symbol
 _atom_site_label
 _atom_site_symmetry_multiplicity
 _atom_site_fract_x
 _atom_site_fract_y
 _atom_site_fract_z
 _atom_site_occupancy
  Te  Te0  1  0.99403400  0.33992328  0.55509539  1
  Te  Te1  1  0.33992328  0.66604272  0.55509539  1
  Te  Te2  1  0.66604272  0.99403400  0.55509539  1
  Te  Te3  1  0.32820036  0.00464136  0.65090573  1
  Te  Te4  1  0.66715828  0.32820036  0.65090573  1
  Te  Te5  1  0.00464136  0.66715828  0.65090573  1
  Pt  Pt6  1  0.00000000  0.00000000  0.60178948  1
  Pt  Pt7  1  0.33333300  0.33333300  0.60211825  1
  Pt  Pt8  1  0.66666700  0.66666700  0.60453514  1
  W  W9  1  0.49879493  0.50153898  0.38692813  1
  W  W10  1  0.50153898  0.99966609  0.38692813  1
  W  W11  1  0.99966609  0.49879493  0.38692813  1
  W  W12  1  0.00000000  0.00000000  0.38693567  1
  Se  Se13  1  0.16785748  0.16546450  0.33214450  1
  Se  Se14  1  0.16546450  0.66667902  0.33214450  1
  Se  Se15  1  0.66667902  0.16785748  0.33214450  1
  Se  Se16  1  0.66666700  0.66666700  0.33211790  1
  Se  Se17  1  0.16932054  0.16420082  0.44157914  1
  Se  Se18  1  0.16420082  0.66647964  0.44157914  1
  Se  Se19  1  0.66647964  0.16932054  0.44157914  1
  Se  Se20  1  0.66666700  0.66666700  0.44193988  1
