# generated using pymatgen
data_Hf3Ti4(S3O4)2
_symmetry_space_group_name_H-M   'P 1'
_cell_length_a   6.14804500
_cell_length_b   6.14804462
_cell_length_c   30.00000000
_cell_angle_alpha   90.00000000
_cell_angle_beta   90.00000000
_cell_angle_gamma   60.00000332
_symmetry_Int_Tables_number   1
_chemical_formula_structural   Hf3Ti4(S3O4)2
_chemical_formula_sum   'Hf3 Ti4 S6 O8'
_cell_volume   982.03269961
_cell_formula_units_Z   1
loop_
 _symmetry_equiv_pos_site_id
 _symmetry_equiv_pos_as_xyz
  1  'x, y, z'
loop_
 _atom_site_type_symbol
 _atom_site_label
 _atom_site_symmetry_multiplicity
 _atom_site_fract_x
 _atom_site_fract_y
 _atom_site_fract_z
 _atom_site_occupancy
  Hf  Hf0  1  0.00000000  0.00000000  0.59806683  1
  Hf  Hf1  1  0.33333300  0.33333300  0.59845396  1
  Hf  Hf2  1  0.66666700  0.66666700  0.59796739  1
  Ti  Ti3  1  0.51841346  0.47573880  0.41349801  1
  Ti  Ti4  1  0.47573880  0.00584775  0.41349801  1
  Ti  Ti5  1  0.00000000  0.00000000  0.42163384  1
  Ti  Ti6  1  0.00584775  0.51841346  0.41349801  1
  S  S7  1  0.66721225  0.33341864  0.64763452  1
  S  S8  1  0.99936911  0.66721225  0.64763452  1
  S  S9  1  0.66589904  0.00082317  0.54887018  1
  S  S10  1  0.33327780  0.66589904  0.54887018  1
  S  S11  1  0.00082317  0.33327780  0.54887018  1
  S  S12  1  0.33341864  0.99936911  0.64763452  1
  O  O13  1  0.84333563  0.82827327  0.44775412  1
  O  O14  1  0.16638939  0.16730676  0.38355842  1
  O  O15  1  0.16730676  0.66630485  0.38355842  1
  O  O16  1  0.66630485  0.16638939  0.38355842  1
  O  O17  1  0.66666700  0.66666700  0.38483385  1
  O  O18  1  0.32839010  0.84333563  0.44775412  1
  O  O19  1  0.33333300  0.33333300  0.44634737  1
  O  O20  1  0.82827327  0.32839010  0.44775412  1
