# generated using pymatgen
data_Te4PdPt
_symmetry_space_group_name_H-M   'P 1'
_cell_length_a   6.95724036
_cell_length_b   6.95724036
_cell_length_c   30.00000000
_cell_angle_alpha   90.00000000
_cell_angle_beta   90.00000000
_cell_angle_gamma   59.99999654
_symmetry_Int_Tables_number   1
_chemical_formula_structural   Te4PdPt
_chemical_formula_sum   'Te12 Pd3 Pt3'
_cell_volume   1257.55181143
_cell_formula_units_Z   3
loop_
 _symmetry_equiv_pos_site_id
 _symmetry_equiv_pos_as_xyz
  1  'x, y, z'
loop_
 _atom_site_type_symbol
 _atom_site_label
 _atom_site_symmetry_multiplicity
 _atom_site_fract_x
 _atom_site_fract_y
 _atom_site_fract_z
 _atom_site_occupancy
  Te  Te0  1  0.00000000  0.33333300  0.63205589  1
  Te  Te1  1  0.33333300  0.66666700  0.46036970  1
  Te  Te2  1  0.00000000  0.66666700  0.36780049  1
  Te  Te3  1  0.66666700  0.33333300  0.36780049  1
  Te  Te4  1  0.33333300  0.00000000  0.36780049  1
  Te  Te5  1  0.66666700  0.00000000  0.46036970  1
  Te  Te6  1  0.66666700  0.00000000  0.63205589  1
  Te  Te7  1  0.00000000  0.33333300  0.46036970  1
  Te  Te8  1  0.00000000  0.66666700  0.53953938  1
  Te  Te9  1  0.66666700  0.33333300  0.53953938  1
  Te  Te10  1  0.33333300  0.00000000  0.53953938  1
  Te  Te11  1  0.33333300  0.66666700  0.63205589  1
  Pd  Pd12  1  0.66666700  0.66666700  0.58459279  1
  Pd  Pd13  1  0.33333300  0.33333300  0.58459279  1
  Pd  Pd14  1  0.00000000  0.00000000  0.58459279  1
  Pt  Pt15  1  0.00000000  0.00000000  0.41480176  1
  Pt  Pt16  1  0.33333300  0.33333300  0.41480176  1
  Pt  Pt17  1  0.66666700  0.66666700  0.41480176  1
