# generated using pymatgen
data_Sn3(Ge2O7)2
_symmetry_space_group_name_H-M   'P 1'
_cell_length_a   5.69205815
_cell_length_b   5.69205800
_cell_length_c   30.00000000
_cell_angle_alpha   90.00000000
_cell_angle_beta   90.00000000
_cell_angle_gamma   60.00000087
_symmetry_Int_Tables_number   1
_chemical_formula_structural   Sn3(Ge2O7)2
_chemical_formula_sum   'Sn3 Ge4 O14'
_cell_volume   841.76436219
_cell_formula_units_Z   1
loop_
 _symmetry_equiv_pos_site_id
 _symmetry_equiv_pos_as_xyz
  1  'x, y, z'
loop_
 _atom_site_type_symbol
 _atom_site_label
 _atom_site_symmetry_multiplicity
 _atom_site_fract_x
 _atom_site_fract_y
 _atom_site_fract_z
 _atom_site_occupancy
  Sn  Sn0  1  0.66666700  0.66666700  0.41913336  1
  Sn  Sn1  1  0.33333300  0.33333300  0.41905760  1
  Sn  Sn2  1  0.00000000  0.00000000  0.41908245  1
  Ge  Ge3  1  0.00000000  0.00000000  0.58304346  1
  Ge  Ge4  1  0.99999431  0.50015687  0.58282347  1
  Ge  Ge5  1  0.49984882  0.99999431  0.58282347  1
  Ge  Ge6  1  0.50015687  0.49984882  0.58282347  1
  O  O7  1  0.33374614  0.99965349  0.45187357  1
  O  O8  1  0.66672639  0.00013219  0.38621980  1
  O  O9  1  0.33314142  0.66672639  0.38621980  1
  O  O10  1  0.00013219  0.33314142  0.38621980  1
  O  O11  1  0.83333260  0.83294715  0.61654247  1
  O  O12  1  0.66660037  0.33374614  0.45187357  1
  O  O13  1  0.33333300  0.33333300  0.61649610  1
  O  O14  1  0.33371925  0.83333260  0.61654247  1
  O  O15  1  0.66666700  0.66666700  0.54910677  1
  O  O16  1  0.66689900  0.16585620  0.54931644  1
  O  O17  1  0.16724581  0.66689900  0.54931644  1
  O  O18  1  0.16585620  0.16724581  0.54931644  1
  O  O19  1  0.83294715  0.33371925  0.61654247  1
  O  O20  1  0.99965349  0.66660037  0.45187357  1
