# generated using pymatgen
data_HfNi(TeSe)2
_symmetry_space_group_name_H-M   'P 1'
_cell_length_a   3.72543941
_cell_length_b   3.72544000
_cell_length_c   30.00000000
_cell_angle_alpha   90.00000000
_cell_angle_beta   90.00000000
_cell_angle_gamma   59.99999477
_symmetry_Int_Tables_number   1
_chemical_formula_structural   HfNi(TeSe)2
_chemical_formula_sum   'Hf1 Ni1 Te2 Se2'
_cell_volume   360.58440624
_cell_formula_units_Z   1
loop_
 _symmetry_equiv_pos_site_id
 _symmetry_equiv_pos_as_xyz
  1  'x, y, z'
loop_
 _atom_site_type_symbol
 _atom_site_label
 _atom_site_symmetry_multiplicity
 _atom_site_fract_x
 _atom_site_fract_y
 _atom_site_fract_z
 _atom_site_occupancy
  Hf  Hf0  1  0.00000000  0.00000000  0.38656506  1
  Ni  Ni1  1  0.00000000  0.00000000  0.59310748  1
  Te  Te2  1  0.33333300  0.33333300  0.32347703  1
  Te  Te3  1  0.33333300  0.33333300  0.44919420  1
  Se  Se4  1  0.33333300  0.33333300  0.55555366  1
  Se  Se5  1  0.66666700  0.66666700  0.63174957  1
