# generated using pymatgen
data_SnPt(SeS)2
_symmetry_space_group_name_H-M   'P 1'
_cell_length_a   6.44476370
_cell_length_b   6.44476370
_cell_length_c   30.00000000
_cell_angle_alpha   90.00000000
_cell_angle_beta   90.00000000
_cell_angle_gamma   60.00000307
_symmetry_Int_Tables_number   1
_chemical_formula_structural   SnPt(SeS)2
_chemical_formula_sum   'Sn3 Pt3 Se6 S6'
_cell_volume   1079.11044634
_cell_formula_units_Z   3
loop_
 _symmetry_equiv_pos_site_id
 _symmetry_equiv_pos_as_xyz
  1  'x, y, z'
loop_
 _atom_site_type_symbol
 _atom_site_label
 _atom_site_symmetry_multiplicity
 _atom_site_fract_x
 _atom_site_fract_y
 _atom_site_fract_z
 _atom_site_occupancy
  Sn  Sn0  1  0.66666700  0.66666700  0.40437713  1
  Sn  Sn1  1  0.33333300  0.33333300  0.40437713  1
  Sn  Sn2  1  0.00000000  0.00000000  0.40437713  1
  Pt  Pt3  1  0.00000000  0.00000000  0.58982837  1
  Pt  Pt4  1  0.33333300  0.33333300  0.58982837  1
  Pt  Pt5  1  0.66666700  0.66666700  0.58982837  1
  Se  Se6  1  0.66666700  0.00000000  0.63416603  1
  Se  Se7  1  0.00000000  0.33333300  0.63416603  1
  Se  Se8  1  0.00000000  0.66666700  0.54625332  1
  Se  Se9  1  0.66666700  0.33333300  0.54625332  1
  Se  Se10  1  0.33333300  0.00000000  0.54625332  1
  Se  Se11  1  0.33333300  0.66666700  0.63416603  1
  S  S12  1  0.66666700  0.00000000  0.45338076  1
  S  S13  1  0.33333300  0.00000000  0.35542338  1
  S  S14  1  0.66666700  0.33333300  0.35542338  1
  S  S15  1  0.00000000  0.66666700  0.35542338  1
  S  S16  1  0.33333300  0.66666700  0.45338076  1
  S  S17  1  0.00000000  0.33333300  0.45338076  1
