# generated using pymatgen
data_Zr3Cr4(Te3Se4)2
_symmetry_space_group_name_H-M   'P 1'
_cell_length_a   6.60508217
_cell_length_b   6.60508217
_cell_length_c   30.00000000
_cell_angle_alpha   90.00000000
_cell_angle_beta   90.00000000
_cell_angle_gamma   59.99999832
_symmetry_Int_Tables_number   1
_chemical_formula_structural   Zr3Cr4(Te3Se4)2
_chemical_formula_sum   'Zr3 Cr4 Te6 Se8'
_cell_volume   1133.46555897
_cell_formula_units_Z   1
loop_
 _symmetry_equiv_pos_site_id
 _symmetry_equiv_pos_as_xyz
  1  'x, y, z'
loop_
 _atom_site_type_symbol
 _atom_site_label
 _atom_site_symmetry_multiplicity
 _atom_site_fract_x
 _atom_site_fract_y
 _atom_site_fract_z
 _atom_site_occupancy
  Zr  Zr0  1  0.66666700  0.66666700  0.37781106  1
  Zr  Zr1  1  0.33333300  0.33333300  0.38206899  1
  Zr  Zr2  1  0.00000000  0.00000000  0.38311209  1
  Cr  Cr3  1  0.00000000  0.00000000  0.60972897  1
  Cr  Cr4  1  0.99971057  0.50158771  0.60980695  1
  Cr  Cr5  1  0.49870172  0.99971057  0.60980695  1
  Cr  Cr6  1  0.50158771  0.49870172  0.60980695  1
  Te  Te7  1  0.33935082  0.99504453  0.44380194  1
  Te  Te8  1  0.00414350  0.66759610  0.31762207  1
  Te  Te9  1  0.66759610  0.32826040  0.31762207  1
  Te  Te10  1  0.32826040  0.00414350  0.31762207  1
  Te  Te11  1  0.99504453  0.66560465  0.44380194  1
  Te  Te12  1  0.66560465  0.33935082  0.44380194  1
  Se  Se13  1  0.16769504  0.66678022  0.66113895  1
  Se  Se14  1  0.16552574  0.16769504  0.66113895  1
  Se  Se15  1  0.66666700  0.66666700  0.55835195  1
  Se  Se16  1  0.66634787  0.16440182  0.55861082  1
  Se  Se17  1  0.16925131  0.66634787  0.55861082  1
  Se  Se18  1  0.16440182  0.16925131  0.55861082  1
  Se  Se19  1  0.66666700  0.66666700  0.66122274  1
  Se  Se20  1  0.66678022  0.16552574  0.66113895  1
