# generated using pymatgen
data_MoPdO4
_symmetry_space_group_name_H-M   'P 1'
_cell_length_a   5.12068586
_cell_length_b   5.12068586
_cell_length_c   30.00000000
_cell_angle_alpha   90.00000000
_cell_angle_beta   90.00000000
_cell_angle_gamma   60.00000180
_symmetry_Int_Tables_number   1
_chemical_formula_structural   MoPdO4
_chemical_formula_sum   'Mo3 Pd3 O12'
_cell_volume   681.25258337
_cell_formula_units_Z   3
loop_
 _symmetry_equiv_pos_site_id
 _symmetry_equiv_pos_as_xyz
  1  'x, y, z'
loop_
 _atom_site_type_symbol
 _atom_site_label
 _atom_site_symmetry_multiplicity
 _atom_site_fract_x
 _atom_site_fract_y
 _atom_site_fract_z
 _atom_site_occupancy
  Mo  Mo0  1  0.66666700  0.66666700  0.41042312  1
  Mo  Mo1  1  0.33333300  0.33333300  0.41042312  1
  Mo  Mo2  1  0.00000000  0.00000000  0.41042312  1
  Pd  Pd3  1  0.00000000  0.00000000  0.58137518  1
  Pd  Pd4  1  0.33333300  0.33333300  0.58137518  1
  Pd  Pd5  1  0.66666700  0.66666700  0.58137518  1
  O  O6  1  0.33333300  0.00000000  0.45041138  1
  O  O7  1  0.00000000  0.66666700  0.37034744  1
  O  O8  1  0.66666700  0.33333300  0.37034744  1
  O  O9  1  0.33333300  0.00000000  0.37034744  1
  O  O10  1  0.00000000  0.33333300  0.61639263  1
  O  O11  1  0.66666700  0.00000000  0.61639263  1
  O  O12  1  0.33333300  0.66666700  0.61639263  1
  O  O13  1  0.00000000  0.66666700  0.54645025  1
  O  O14  1  0.66666700  0.33333300  0.54645025  1
  O  O15  1  0.33333300  0.00000000  0.54645025  1
  O  O16  1  0.66666700  0.33333300  0.45041138  1
  O  O17  1  0.00000000  0.66666700  0.45041138  1
