# generated using pymatgen
data_ZrSeS
_symmetry_space_group_name_H-M   'P 1'
_cell_length_a   3.63659195
_cell_length_b   3.63659200
_cell_length_c   30.00000000
_cell_angle_alpha   90.00000000
_cell_angle_beta   90.00000000
_cell_angle_gamma   59.99999957
_symmetry_Int_Tables_number   1
_chemical_formula_structural   ZrSeS
_chemical_formula_sum   'Zr2 Se2 S2'
_cell_volume   343.59041249
_cell_formula_units_Z   2
loop_
 _symmetry_equiv_pos_site_id
 _symmetry_equiv_pos_as_xyz
  1  'x, y, z'
loop_
 _atom_site_type_symbol
 _atom_site_label
 _atom_site_symmetry_multiplicity
 _atom_site_fract_x
 _atom_site_fract_y
 _atom_site_fract_z
 _atom_site_occupancy
  Zr  Zr0  1  0.00000000  0.00000000  0.61197828  1
  Zr  Zr1  1  0.00000000  0.00000000  0.38413707  1
  Se  Se2  1  0.33333300  0.33333300  0.32721740  1
  Se  Se3  1  0.33333300  0.33333300  0.44078368  1
  S  S4  1  0.33333300  0.33333300  0.56034828  1
  S  S5  1  0.33333300  0.33333300  0.66390130  1
