# generated using pymatgen
data_Te6Pd3(PtS2)4
_symmetry_space_group_name_H-M   'P 1'
_cell_length_a   7.05198152
_cell_length_b   7.05198200
_cell_length_c   30.00000000
_cell_angle_alpha   90.00000000
_cell_angle_beta   90.00000000
_cell_angle_gamma   59.99999773
_symmetry_Int_Tables_number   1
_chemical_formula_structural   Te6Pd3(PtS2)4
_chemical_formula_sum   'Te6 Pd3 Pt4 S8'
_cell_volume   1292.03487631
_cell_formula_units_Z   1
loop_
 _symmetry_equiv_pos_site_id
 _symmetry_equiv_pos_as_xyz
  1  'x, y, z'
loop_
 _atom_site_type_symbol
 _atom_site_label
 _atom_site_symmetry_multiplicity
 _atom_site_fract_x
 _atom_site_fract_y
 _atom_site_fract_z
 _atom_site_occupancy
  Te  Te0  1  0.01254931  0.33229679  0.54804573  1
  Te  Te1  1  0.33229679  0.65515390  0.54804573  1
  Te  Te2  1  0.65515390  0.01254931  0.54804573  1
  Te  Te3  1  0.33394038  0.99036323  0.63773686  1
  Te  Te4  1  0.67569639  0.33394038  0.63773686  1
  Te  Te5  1  0.99036323  0.67569639  0.63773686  1
  Pd  Pd6  1  0.00000000  0.00000000  0.59066533  1
  Pd  Pd7  1  0.33333300  0.33333300  0.59627441  1
  Pd  Pd8  1  0.66666700  0.66666700  0.59056834  1
  Pt  Pt9  1  0.49840488  0.50137668  0.40919956  1
  Pt  Pt10  1  0.50137668  0.00021844  0.40919956  1
  Pt  Pt11  1  0.00021844  0.49840488  0.40919956  1
  Pt  Pt12  1  0.00000000  0.00000000  0.40984618  1
  S  S13  1  0.16853953  0.16271238  0.36745776  1
  S  S14  1  0.16271238  0.66874908  0.36745776  1
  S  S15  1  0.66874908  0.16853953  0.36745776  1
  S  S16  1  0.66666700  0.66666700  0.36725094  1
  S  S17  1  0.33450668  0.83594025  0.45095796  1
  S  S18  1  0.33333300  0.33333300  0.45112019  1
  S  S19  1  0.83594025  0.82955207  0.45095796  1
  S  S20  1  0.82955207  0.33450668  0.45095796  1
