# generated using pymatgen
data_Sn3Pt4(Se3O4)2
_symmetry_space_group_name_H-M   'P 1'
_cell_length_a   6.48864000
_cell_length_b   6.48863993
_cell_length_c   30.00000000
_cell_angle_alpha   90.00000000
_cell_angle_beta   90.00000000
_cell_angle_gamma   59.99999966
_symmetry_Int_Tables_number   1
_chemical_formula_structural   Sn3Pt4(Se3O4)2
_chemical_formula_sum   'Sn3 Pt4 Se6 O8'
_cell_volume   1093.85369836
_cell_formula_units_Z   1
loop_
 _symmetry_equiv_pos_site_id
 _symmetry_equiv_pos_as_xyz
  1  'x, y, z'
loop_
 _atom_site_type_symbol
 _atom_site_label
 _atom_site_symmetry_multiplicity
 _atom_site_fract_x
 _atom_site_fract_y
 _atom_site_fract_z
 _atom_site_occupancy
  Sn  Sn0  1  0.66666700  0.66666700  0.40098253  1
  Sn  Sn1  1  0.33333300  0.33333300  0.40197848  1
  Sn  Sn2  1  0.00000000  0.00000000  0.40175177  1
  Pt  Pt3  1  0.00000000  0.00000000  0.58027316  1
  Pt  Pt4  1  0.99992399  0.49998555  0.58025582  1
  Pt  Pt5  1  0.50009046  0.99992399  0.58025582  1
  Pt  Pt6  1  0.49998555  0.50009046  0.58025582  1
  Se  Se7  1  0.33588241  0.99689749  0.45581140  1
  Se  Se8  1  0.66635589  0.00197189  0.34718554  1
  Se  Se9  1  0.33167222  0.66635589  0.34718554  1
  Se  Se10  1  0.00197189  0.33167222  0.34718554  1
  Se  Se11  1  0.99689749  0.66722010  0.45581140  1
  Se  Se12  1  0.66722010  0.33588241  0.45581140  1
  O  O13  1  0.33333300  0.33333300  0.60998044  1
  O  O14  1  0.33334160  0.83294514  0.60991750  1
  O  O15  1  0.66666700  0.66666700  0.55051943  1
  O  O16  1  0.66657865  0.16580535  0.55072981  1
  O  O17  1  0.16761700  0.66657865  0.55072981  1
  O  O18  1  0.16580535  0.16761700  0.55072981  1
  O  O19  1  0.83371226  0.33334160  0.60991750  1
  O  O20  1  0.83294514  0.83371226  0.60991750  1
