# generated using pymatgen
data_HfTeSe
_symmetry_space_group_name_H-M   'P 1'
_cell_length_a   3.84049455
_cell_length_b   3.84049500
_cell_length_c   30.00000000
_cell_angle_alpha   90.00000000
_cell_angle_beta   90.00000000
_cell_angle_gamma   60.00000472
_symmetry_Int_Tables_number   1
_chemical_formula_structural   HfTeSe
_chemical_formula_sum   'Hf2 Te2 Se2'
_cell_volume   383.20067380
_cell_formula_units_Z   2
loop_
 _symmetry_equiv_pos_site_id
 _symmetry_equiv_pos_as_xyz
  1  'x, y, z'
loop_
 _atom_site_type_symbol
 _atom_site_label
 _atom_site_symmetry_multiplicity
 _atom_site_fract_x
 _atom_site_fract_y
 _atom_site_fract_z
 _atom_site_occupancy
  Hf  Hf0  1  0.00000000  0.00000000  0.61408438  1
  Hf  Hf1  1  0.00000000  0.00000000  0.37695443  1
  Te  Te2  1  0.33333300  0.33333300  0.31482858  1
  Te  Te3  1  0.33333300  0.33333300  0.43868242  1
  Se  Se4  1  0.33333300  0.33333300  0.56313064  1
  Se  Se5  1  0.66666700  0.66666700  0.66519055  1
