# generated using pymatgen
data_Te8Pt11O14
_symmetry_space_group_name_H-M   'P 1'
_cell_length_a   8.17353402
_cell_length_b   8.17353430
_cell_length_c   30.00000000
_cell_angle_alpha   90.00000000
_cell_angle_beta   90.00000000
_cell_angle_gamma   59.99999868
_symmetry_Int_Tables_number   1
_chemical_formula_structural   Te8Pt11O14
_chemical_formula_sum   'Te8 Pt11 O14'
_cell_volume   1735.68793524
_cell_formula_units_Z   1
loop_
 _symmetry_equiv_pos_site_id
 _symmetry_equiv_pos_as_xyz
  1  'x, y, z'
loop_
 _atom_site_type_symbol
 _atom_site_label
 _atom_site_symmetry_multiplicity
 _atom_site_fract_x
 _atom_site_fract_y
 _atom_site_fract_z
 _atom_site_occupancy
  Te  Te0  1  0.83430473  0.33333436  0.45383257  1
  Te  Te1  1  0.33333300  0.33333300  0.45270494  1
  Te  Te2  1  0.33333436  0.83235991  0.45383257  1
  Te  Te3  1  0.66666700  0.66666700  0.36342349  1
  Te  Te4  1  0.66736609  0.16588734  0.36367135  1
  Te  Te5  1  0.16674756  0.66736609  0.36367135  1
  Te  Te6  1  0.16588734  0.16674756  0.36367135  1
  Te  Te7  1  0.83235991  0.83430473  0.45383257  1
  Pt  Pt8  1  0.50061466  0.49987773  0.40877798  1
  Pt  Pt9  1  0.49987773  0.99950761  0.40877798  1
  Pt  Pt10  1  0.99950761  0.50061466  0.40877798  1
  Pt  Pt11  1  0.00000000  0.00000000  0.40916824  1
  Pt  Pt12  1  0.00000000  0.00000000  0.58208214  1
  Pt  Pt13  1  0.14230064  0.28573113  0.58282687  1
  Pt  Pt14  1  0.28573113  0.57196823  0.58282687  1
  Pt  Pt15  1  0.57196823  0.14230064  0.58282687  1
  Pt  Pt16  1  0.42843341  0.85749044  0.58232482  1
  Pt  Pt17  1  0.71407615  0.42843341  0.58232482  1
  Pt  Pt18  1  0.85749044  0.71407615  0.58232482  1
  O  O19  1  0.04905876  0.76093057  0.54927064  1
  O  O20  1  0.19001068  0.04905876  0.54927064  1
  O  O21  1  0.33333300  0.33333300  0.55019648  1
  O  O22  1  0.47614950  0.61884671  0.54941444  1
  O  O23  1  0.76093057  0.19001068  0.54927064  1
  O  O24  1  0.09438678  0.52489841  0.61561478  1
  O  O25  1  0.95156598  0.23699927  0.61537706  1
  O  O26  1  0.66666700  0.66666700  0.61525220  1
  O  O27  1  0.81143475  0.95156598  0.61537706  1
  O  O28  1  0.61884671  0.90500379  0.54941444  1
  O  O29  1  0.38071481  0.09438678  0.61561478  1
  O  O30  1  0.23699927  0.81143475  0.61537706  1
  O  O31  1  0.90500379  0.47614950  0.54941444  1
  O  O32  1  0.52489841  0.38071481  0.61561478  1
