# generated using pymatgen
data_Ti4Pb3O14
_symmetry_space_group_name_H-M   'P 1'
_cell_length_a   5.92236428
_cell_length_b   5.92236500
_cell_length_c   30.00000000
_cell_angle_alpha   90.00000000
_cell_angle_beta   90.00000000
_cell_angle_gamma   60.00000157
_symmetry_Int_Tables_number   1
_chemical_formula_structural   Ti4Pb3O14
_chemical_formula_sum   'Ti4 Pb3 O14'
_cell_volume   911.25973353
_cell_formula_units_Z   1
loop_
 _symmetry_equiv_pos_site_id
 _symmetry_equiv_pos_as_xyz
  1  'x, y, z'
loop_
 _atom_site_type_symbol
 _atom_site_label
 _atom_site_symmetry_multiplicity
 _atom_site_fract_x
 _atom_site_fract_y
 _atom_site_fract_z
 _atom_site_occupancy
  Ti  Ti0  1  0.99685999  0.50187362  0.42333059  1
  Ti  Ti1  1  0.50187362  0.50126639  0.42333059  1
  Ti  Ti2  1  0.50126639  0.99685999  0.42333059  1
  Ti  Ti3  1  0.00000000  0.00000000  0.41382194  1
  Pb  Pb4  1  0.00000000  0.00000000  0.57780327  1
  Pb  Pb5  1  0.66666700  0.66666700  0.57884646  1
  Pb  Pb6  1  0.33333300  0.33333300  0.57854360  1
  O  O7  1  0.00034458  0.66480011  0.54315088  1
  O  O8  1  0.33208935  0.66796870  0.61385606  1
  O  O9  1  0.66796870  0.99994194  0.61385606  1
  O  O10  1  0.99994194  0.33208935  0.61385606  1
  O  O11  1  0.33485531  0.00034458  0.54315088  1
  O  O12  1  0.83464844  0.83713563  0.45357314  1
  O  O13  1  0.16933345  0.16934021  0.38735867  1
  O  O14  1  0.16934021  0.66132734  0.38735867  1
  O  O15  1  0.66132734  0.16933345  0.38735867  1
  O  O16  1  0.66666700  0.66666700  0.38899434  1
  O  O17  1  0.32821494  0.83464844  0.45357314  1
  O  O18  1  0.33333300  0.33333300  0.45528435  1
  O  O19  1  0.66480011  0.33485531  0.54315088  1
  O  O20  1  0.83713563  0.32821494  0.45357314  1
