# generated using pymatgen
data_Ni7Sn4(S4O7)2
_symmetry_space_group_name_H-M   'P 1'
_cell_length_a   7.44729369
_cell_length_b   7.44729358
_cell_length_c   30.00000000
_cell_angle_alpha   90.00000000
_cell_angle_beta   90.00000000
_cell_angle_gamma   59.99999814
_symmetry_Int_Tables_number   1
_chemical_formula_structural   Ni7Sn4(S4O7)2
_chemical_formula_sum   'Ni7 Sn4 S8 O14'
_cell_volume   1440.94974289
_cell_formula_units_Z   1
loop_
 _symmetry_equiv_pos_site_id
 _symmetry_equiv_pos_as_xyz
  1  'x, y, z'
loop_
 _atom_site_type_symbol
 _atom_site_label
 _atom_site_symmetry_multiplicity
 _atom_site_fract_x
 _atom_site_fract_y
 _atom_site_fract_z
 _atom_site_occupancy
  Ni  Ni0  1  0.00000000  0.00000000  0.58207213  1
  Ni  Ni1  1  0.14257298  0.28577850  0.58234641  1
  Ni  Ni2  1  0.28577850  0.57164852  0.58234641  1
  Ni  Ni3  1  0.57164852  0.14257298  0.58234641  1
  Ni  Ni4  1  0.42839300  0.85726189  0.58204921  1
  Ni  Ni5  1  0.71434512  0.42839300  0.58204921  1
  Ni  Ni6  1  0.85726189  0.71434512  0.58204921  1
  Sn  Sn7  1  0.50019426  0.99963328  0.40634041  1
  Sn  Sn8  1  0.50017246  0.50019426  0.40634041  1
  Sn  Sn9  1  0.00000000  0.00000000  0.40678972  1
  Sn  Sn10  1  0.99963328  0.50017246  0.40634041  1
  S  S11  1  0.66735495  0.16634847  0.35751057  1
  S  S12  1  0.16629758  0.66735495  0.35751057  1
  S  S13  1  0.16634847  0.16629758  0.35751057  1
  S  S14  1  0.33333300  0.33333300  0.45470583  1
  S  S15  1  0.66666700  0.66666700  0.35730329  1
  S  S16  1  0.33395290  0.83280164  0.45525118  1
  S  S17  1  0.83324446  0.33395290  0.45525118  1
  S  S18  1  0.83280164  0.83324446  0.45525118  1
  O  O19  1  0.66666700  0.66666700  0.61365642  1
  O  O20  1  0.95198866  0.23780066  0.61382334  1
  O  O21  1  0.09479019  0.52441626  0.61390401  1
  O  O22  1  0.38079355  0.09479019  0.61390401  1
  O  O23  1  0.23780066  0.81021069  0.61382334  1
  O  O24  1  0.04834650  0.76150970  0.55037939  1
  O  O25  1  0.90509893  0.47638187  0.55036098  1
  O  O26  1  0.61851920  0.90509893  0.55036098  1
  O  O27  1  0.76150970  0.19014380  0.55037939  1
  O  O28  1  0.47638187  0.61851920  0.55036098  1
  O  O29  1  0.33333300  0.33333300  0.55083011  1
  O  O30  1  0.19014380  0.04834650  0.55037939  1
  O  O31  1  0.81021069  0.95198866  0.61382334  1
  O  O32  1  0.52441626  0.38079355  0.61390401  1
