# generated using pymatgen
data_Cr3Ge4(Se3O4)2
_symmetry_space_group_name_H-M   'P 1'
_cell_length_a   5.68015070
_cell_length_b   5.68015100
_cell_length_c   30.00000000
_cell_angle_alpha   90.00000000
_cell_angle_beta   90.00000000
_cell_angle_gamma   60.00000405
_symmetry_Int_Tables_number   1
_chemical_formula_structural   Cr3Ge4(Se3O4)2
_chemical_formula_sum   'Cr3 Ge4 Se6 O8'
_cell_volume   838.24629577
_cell_formula_units_Z   1
loop_
 _symmetry_equiv_pos_site_id
 _symmetry_equiv_pos_as_xyz
  1  'x, y, z'
loop_
 _atom_site_type_symbol
 _atom_site_label
 _atom_site_symmetry_multiplicity
 _atom_site_fract_x
 _atom_site_fract_y
 _atom_site_fract_z
 _atom_site_occupancy
  Cr  Cr0  1  0.66666700  0.66666700  0.39411183  1
  Cr  Cr1  1  0.33333300  0.33333300  0.39432726  1
  Cr  Cr2  1  0.00000000  0.00000000  0.39434535  1
  Ge  Ge3  1  0.00000000  0.00000000  0.58736377  1
  Ge  Ge4  1  0.99994171  0.50014315  0.58720386  1
  Ge  Ge5  1  0.49991514  0.99994171  0.58720386  1
  Ge  Ge6  1  0.50014315  0.49991514  0.58720386  1
  Se  Se7  1  0.33436482  0.99903476  0.44572869  1
  Se  Se8  1  0.00033347  0.66670813  0.34266417  1
  Se  Se9  1  0.66670813  0.33295840  0.34266417  1
  Se  Se10  1  0.33295840  0.00033347  0.34266417  1
  Se  Se11  1  0.99903476  0.66660042  0.44572869  1
  Se  Se12  1  0.66660042  0.33436482  0.44572869  1
  O  O13  1  0.33333300  0.33333300  0.62092066  1
  O  O14  1  0.33359582  0.83338667  0.62097583  1
  O  O15  1  0.66666700  0.66666700  0.55339106  1
  O  O16  1  0.66687799  0.16602336  0.55353681  1
  O  O17  1  0.16709965  0.66687799  0.55353681  1
  O  O18  1  0.16602336  0.16709965  0.55353681  1
  O  O19  1  0.83301651  0.33359582  0.62097583  1
  O  O20  1  0.83338667  0.83301651  0.62097583  1
