# generated using pymatgen
data_Zr3(Cr2Se7)2
_symmetry_space_group_name_H-M   'P 1'
_cell_length_a   6.49605195
_cell_length_b   6.49605195
_cell_length_c   30.00000000
_cell_angle_alpha   90.00000000
_cell_angle_beta   90.00000000
_cell_angle_gamma   60.00000050
_symmetry_Int_Tables_number   1
_chemical_formula_structural   Zr3(Cr2Se7)2
_chemical_formula_sum   'Zr3 Cr4 Se14'
_cell_volume   1096.35415664
_cell_formula_units_Z   1
loop_
 _symmetry_equiv_pos_site_id
 _symmetry_equiv_pos_as_xyz
  1  'x, y, z'
loop_
 _atom_site_type_symbol
 _atom_site_label
 _atom_site_symmetry_multiplicity
 _atom_site_fract_x
 _atom_site_fract_y
 _atom_site_fract_z
 _atom_site_occupancy
  Zr  Zr0  1  0.00000000  0.00000000  0.60784649  1
  Zr  Zr1  1  0.33333300  0.33333300  0.60816976  1
  Zr  Zr2  1  0.66666700  0.66666700  0.60921787  1
  Cr  Cr3  1  0.50102315  0.49936217  0.39118863  1
  Cr  Cr4  1  0.49936217  0.99961468  0.39118863  1
  Cr  Cr5  1  0.00000000  0.00000000  0.39114560  1
  Cr  Cr6  1  0.99961468  0.50102315  0.39118863  1
  Se  Se7  1  0.66694236  0.00117829  0.66194398  1
  Se  Se8  1  0.00117829  0.33187936  0.66194398  1
  Se  Se9  1  0.99850106  0.66635963  0.55509214  1
  Se  Se10  1  0.66665658  0.16513342  0.44285264  1
  Se  Se11  1  0.66635963  0.33513931  0.55509214  1
  Se  Se12  1  0.33513931  0.99850106  0.55509214  1
  Se  Se13  1  0.16613936  0.16722996  0.33932334  1
  Se  Se14  1  0.16722996  0.66663168  0.33932334  1
  Se  Se15  1  0.66663168  0.16613936  0.33932334  1
  Se  Se16  1  0.66666700  0.66666700  0.33931760  1
  Se  Se17  1  0.16513342  0.16821100  0.44285264  1
  Se  Se18  1  0.16821100  0.66665658  0.44285264  1
  Se  Se19  1  0.33187936  0.66694236  0.66194398  1
  Se  Se20  1  0.66666700  0.66666700  0.44315149  1
