# generated using pymatgen
data_Mo4Pd3(S3O4)2
_symmetry_space_group_name_H-M   'P 1'
_cell_length_a   5.89636400
_cell_length_b   5.89636399
_cell_length_c   30.00000000
_cell_angle_alpha   90.00000000
_cell_angle_beta   90.00000000
_cell_angle_gamma   59.99999993
_symmetry_Int_Tables_number   1
_chemical_formula_structural   Mo4Pd3(S3O4)2
_chemical_formula_sum   'Mo4 Pd3 S6 O8'
_cell_volume   903.27597078
_cell_formula_units_Z   1
loop_
 _symmetry_equiv_pos_site_id
 _symmetry_equiv_pos_as_xyz
  1  'x, y, z'
loop_
 _atom_site_type_symbol
 _atom_site_label
 _atom_site_symmetry_multiplicity
 _atom_site_fract_x
 _atom_site_fract_y
 _atom_site_fract_z
 _atom_site_occupancy
  Mo  Mo0  1  0.99993779  0.49985502  0.40778621  1
  Mo  Mo1  1  0.49985502  0.50020720  0.40778621  1
  Mo  Mo2  1  0.50020720  0.99993779  0.40778621  1
  Mo  Mo3  1  0.00000000  0.00000000  0.40775790  1
  Pd  Pd4  1  0.00000000  0.00000000  0.59021374  1
  Pd  Pd5  1  0.66666700  0.66666700  0.59092739  1
  Pd  Pd6  1  0.33333300  0.33333300  0.59026395  1
  S  S7  1  0.66654796  0.99757292  0.54644367  1
  S  S8  1  0.33145025  0.00178902  0.63476630  1
  S  S9  1  0.66676073  0.33145025  0.63476630  1
  S  S10  1  0.00178902  0.66676073  0.63476630  1
  S  S11  1  0.99757292  0.33587912  0.54644367  1
  S  S12  1  0.33587912  0.66654796  0.54644367  1
  O  O13  1  0.66665240  0.16776947  0.44789672  1
  O  O14  1  0.16675815  0.16655168  0.36765228  1
  O  O15  1  0.16655168  0.66669116  0.36765228  1
  O  O16  1  0.66669116  0.16675815  0.36765228  1
  O  O17  1  0.66666700  0.66666700  0.36769305  1
  O  O18  1  0.16776947  0.16557913  0.44789672  1
  O  O19  1  0.16557913  0.66665240  0.44789672  1
  O  O20  1  0.66666700  0.66666700  0.44802543  1
