# generated using pymatgen
data_TiSeS
_symmetry_space_group_name_H-M   'P 1'
_cell_length_a   3.45380040
_cell_length_b   3.45380000
_cell_length_c   30.00000000
_cell_angle_alpha   90.00000000
_cell_angle_beta   90.00000000
_cell_angle_gamma   60.00000382
_symmetry_Int_Tables_number   1
_chemical_formula_structural   TiSeS
_chemical_formula_sum   'Ti2 Se2 S2'
_cell_volume   309.91765951
_cell_formula_units_Z   2
loop_
 _symmetry_equiv_pos_site_id
 _symmetry_equiv_pos_as_xyz
  1  'x, y, z'
loop_
 _atom_site_type_symbol
 _atom_site_label
 _atom_site_symmetry_multiplicity
 _atom_site_fract_x
 _atom_site_fract_y
 _atom_site_fract_z
 _atom_site_occupancy
  Ti  Ti0  1  0.00000000  0.00000000  0.60413856  1
  Ti  Ti1  1  0.00000000  0.00000000  0.38927743  1
  Se  Se2  1  0.33333300  0.33333300  0.33492412  1
  Se  Se3  1  0.33333300  0.33333300  0.44304708  1
  S  S4  1  0.33333300  0.33333300  0.55768810  1
  S  S5  1  0.66666700  0.66666700  0.65093271  1
