# generated using pymatgen
data_Hf3Sn4(S3O4)2
_symmetry_space_group_name_H-M   'P 1'
_cell_length_a   6.38599620
_cell_length_b   6.38599600
_cell_length_c   30.00000000
_cell_angle_alpha   90.00000000
_cell_angle_beta   90.00000000
_cell_angle_gamma   60.00000106
_symmetry_Int_Tables_number   1
_chemical_formula_structural   Hf3Sn4(S3O4)2
_chemical_formula_sum   'Hf3 Sn4 S6 O8'
_cell_volume   1059.52007365
_cell_formula_units_Z   1
loop_
 _symmetry_equiv_pos_site_id
 _symmetry_equiv_pos_as_xyz
  1  'x, y, z'
loop_
 _atom_site_type_symbol
 _atom_site_label
 _atom_site_symmetry_multiplicity
 _atom_site_fract_x
 _atom_site_fract_y
 _atom_site_fract_z
 _atom_site_occupancy
  Hf  Hf0  1  0.00000000  0.00000000  0.59769726  1
  Hf  Hf1  1  0.33333300  0.33333300  0.59797201  1
  Hf  Hf2  1  0.66666700  0.66666700  0.59773542  1
  Sn  Sn3  1  0.50012517  0.49977311  0.41492828  1
  Sn  Sn4  1  0.49977311  0.00010172  0.41492828  1
  Sn  Sn5  1  0.00000000  0.00000000  0.41460871  1
  Sn  Sn6  1  0.00010172  0.50012517  0.41492828  1
  S  S7  1  0.66715225  0.99957629  0.64514232  1
  S  S8  1  0.99957629  0.33327146  0.64514232  1
  S  S9  1  0.00060860  0.66600966  0.55064236  1
  S  S10  1  0.66600966  0.33338174  0.55064236  1
  S  S11  1  0.33338174  0.00060860  0.55064236  1
  S  S12  1  0.33327146  0.66715225  0.64514232  1
  O  O13  1  0.83276538  0.83433432  0.44902615  1
  O  O14  1  0.16713219  0.16669198  0.38055397  1
  O  O15  1  0.16669198  0.66617683  0.38055397  1
  O  O16  1  0.66617683  0.16713219  0.38055397  1
  O  O17  1  0.66666700  0.66666700  0.38068294  1
  O  O18  1  0.33289930  0.83276538  0.44902615  1
  O  O19  1  0.33333300  0.33333300  0.44930142  1
  O  O20  1  0.83433432  0.33289930  0.44902615  1
