# generated using pymatgen
data_ZrNi(SeS)2
_symmetry_space_group_name_H-M   'P 1'
_cell_length_a   3.55639129
_cell_length_b   3.55639100
_cell_length_c   30.00000000
_cell_angle_alpha   90.00000000
_cell_angle_beta   90.00000000
_cell_angle_gamma   59.99999341
_symmetry_Int_Tables_number   1
_chemical_formula_structural   ZrNi(SeS)2
_chemical_formula_sum   'Zr1 Ni1 Se2 S2'
_cell_volume   328.60252652
_cell_formula_units_Z   1
loop_
 _symmetry_equiv_pos_site_id
 _symmetry_equiv_pos_as_xyz
  1  'x, y, z'
loop_
 _atom_site_type_symbol
 _atom_site_label
 _atom_site_symmetry_multiplicity
 _atom_site_fract_x
 _atom_site_fract_y
 _atom_site_fract_z
 _atom_site_occupancy
  Zr  Zr0  1  0.00000000  0.00000000  0.39359269  1
  Ni  Ni1  1  0.00000000  0.00000000  0.59545957  1
  Se  Se2  1  0.33333300  0.33333300  0.55486778  1
  Se  Se3  1  0.66666700  0.66666700  0.63638415  1
  S  S4  1  0.33333300  0.33333300  0.34116970  1
  S  S5  1  0.33333300  0.33333300  0.44609911  1
