# generated using pymatgen
data_ZrSn(SeS)2
_symmetry_space_group_name_H-M   'P 1'
_cell_length_a   3.71743462
_cell_length_b   3.71743500
_cell_length_c   30.00000000
_cell_angle_alpha   90.00000000
_cell_angle_beta   90.00000000
_cell_angle_gamma   60.00000554
_symmetry_Int_Tables_number   1
_chemical_formula_structural   ZrSn(SeS)2
_chemical_formula_sum   'Zr1 Sn1 Se2 S2'
_cell_volume   359.03652651
_cell_formula_units_Z   1
loop_
 _symmetry_equiv_pos_site_id
 _symmetry_equiv_pos_as_xyz
  1  'x, y, z'
loop_
 _atom_site_type_symbol
 _atom_site_label
 _atom_site_symmetry_multiplicity
 _atom_site_fract_x
 _atom_site_fract_y
 _atom_site_fract_z
 _atom_site_occupancy
  Zr  Zr0  1  0.00000000  0.00000000  0.38626817  1
  Sn  Sn1  1  0.00000000  0.00000000  0.61451565  1
  Se  Se2  1  0.33333300  0.33333300  0.55978362  1
  Se  Se3  1  0.66666700  0.66666700  0.66931292  1
  S  S4  1  0.33333300  0.33333300  0.33511558  1
  S  S5  1  0.33333300  0.33333300  0.43746706  1
