# generated using pymatgen
data_Hf3Zr4(S3O4)2
_symmetry_space_group_name_H-M   'P 1'
_cell_length_a   6.42666102
_cell_length_b   6.42666100
_cell_length_c   30.00000000
_cell_angle_alpha   90.00000000
_cell_angle_beta   90.00000000
_cell_angle_gamma   60.00000525
_symmetry_Int_Tables_number   1
_chemical_formula_structural   Hf3Zr4(S3O4)2
_chemical_formula_sum   'Hf3 Zr4 S6 O8'
_cell_volume   1073.05675944
_cell_formula_units_Z   1
loop_
 _symmetry_equiv_pos_site_id
 _symmetry_equiv_pos_as_xyz
  1  'x, y, z'
loop_
 _atom_site_type_symbol
 _atom_site_label
 _atom_site_symmetry_multiplicity
 _atom_site_fract_x
 _atom_site_fract_y
 _atom_site_fract_z
 _atom_site_occupancy
  Hf  Hf0  1  0.00000000  0.00000000  0.59879719  1
  Hf  Hf1  1  0.33333300  0.33333300  0.59915279  1
  Hf  Hf2  1  0.66666700  0.66666700  0.59870005  1
  Zr  Zr3  1  0.50017059  0.49983748  0.41581001  1
  Zr  Zr4  1  0.49983748  0.99999193  0.41581001  1
  Zr  Zr5  1  0.00000000  0.00000000  0.41387464  1
  Zr  Zr6  1  0.99999193  0.50017059  0.41581001  1
  S  S7  1  0.66726720  0.99937661  0.64588141  1
  S  S8  1  0.99937661  0.33335619  0.64588141  1
  S  S9  1  0.00078940  0.66595243  0.55210191  1
  S  S10  1  0.66595243  0.33325816  0.55210191  1
  S  S11  1  0.33325816  0.00078940  0.55210191  1
  S  S12  1  0.33335619  0.66726720  0.64588141  1
  O  O13  1  0.83367005  0.83512765  0.44818891  1
  O  O14  1  0.16760255  0.16780457  0.38202448  1
  O  O15  1  0.16780457  0.66459388  0.38202448  1
  O  O16  1  0.66459388  0.16760255  0.38202448  1
  O  O17  1  0.66666700  0.66666700  0.38260462  1
  O  O18  1  0.33120130  0.83367005  0.44818891  1
  O  O19  1  0.33333300  0.33333300  0.44888354  1
  O  O20  1  0.83512765  0.33120130  0.44818891  1
