# generated using pymatgen
data_Zr3W4(Se4S3)2
_symmetry_space_group_name_H-M   'P 1'
_cell_length_a   6.50604454
_cell_length_b   6.50604400
_cell_length_c   30.00000000
_cell_angle_alpha   90.00000000
_cell_angle_beta   90.00000000
_cell_angle_gamma   60.00000272
_symmetry_Int_Tables_number   1
_chemical_formula_structural   Zr3W4(Se4S3)2
_chemical_formula_sum   'Zr3 W4 Se8 S6'
_cell_volume   1099.72962941
_cell_formula_units_Z   1
loop_
 _symmetry_equiv_pos_site_id
 _symmetry_equiv_pos_as_xyz
  1  'x, y, z'
loop_
 _atom_site_type_symbol
 _atom_site_label
 _atom_site_symmetry_multiplicity
 _atom_site_fract_x
 _atom_site_fract_y
 _atom_site_fract_z
 _atom_site_occupancy
  Zr  Zr0  1  0.00000000  0.00000000  0.60307943  1
  Zr  Zr1  1  0.33333300  0.33333300  0.60302343  1
  Zr  Zr2  1  0.66666700  0.66666700  0.60388750  1
  W  W3  1  0.50079731  0.49955779  0.38813458  1
  W  W4  1  0.49955779  0.99964490  0.38813458  1
  W  W5  1  0.00000000  0.00000000  0.38812538  1
  W  W6  1  0.99964490  0.50079731  0.38813458  1
  Se  Se7  1  0.66651941  0.16566313  0.44461537  1
  Se  Se8  1  0.16621352  0.16718002  0.33153241  1
  Se  Se9  1  0.16718002  0.66660746  0.33153241  1
  Se  Se10  1  0.66660746  0.16621352  0.33153241  1
  Se  Se11  1  0.66666700  0.66666700  0.33147832  1
  Se  Se12  1  0.16566313  0.16781845  0.44461537  1
  Se  Se13  1  0.16781845  0.66651941  0.44461537  1
  Se  Se14  1  0.66666700  0.66666700  0.44489878  1
  S  S15  1  0.66650869  0.00103063  0.65046481  1
  S  S16  1  0.00103063  0.33246068  0.65046481  1
  S  S17  1  0.99871406  0.66681079  0.55629223  1
  S  S18  1  0.66681079  0.33447514  0.55629223  1
  S  S19  1  0.33447514  0.99871406  0.55629223  1
  S  S20  1  0.33246068  0.66650869  0.65046481  1
