# generated using pymatgen
data_Te2PdPtSe2
_symmetry_space_group_name_H-M   'P 1'
_cell_length_a   6.72324100
_cell_length_b   6.72324032
_cell_length_c   30.00000000
_cell_angle_alpha   90.00000000
_cell_angle_beta   90.00000000
_cell_angle_gamma   60.00000155
_symmetry_Int_Tables_number   1
_chemical_formula_structural   Te2PdPtSe2
_chemical_formula_sum   'Te6 Pd3 Pt3 Se6'
_cell_volume   1174.38151658
_cell_formula_units_Z   3
loop_
 _symmetry_equiv_pos_site_id
 _symmetry_equiv_pos_as_xyz
  1  'x, y, z'
loop_
 _atom_site_type_symbol
 _atom_site_label
 _atom_site_symmetry_multiplicity
 _atom_site_fract_x
 _atom_site_fract_y
 _atom_site_fract_z
 _atom_site_occupancy
  Te  Te0  1  0.00000000  0.66666700  0.65645729  1
  Te  Te1  1  0.66666700  0.33333300  0.65645729  1
  Te  Te2  1  0.33333300  0.00000000  0.65645729  1
  Te  Te3  1  0.00000000  0.33333300  0.55779890  1
  Te  Te4  1  0.33333300  0.66666700  0.55779890  1
  Te  Te5  1  0.66666700  0.00000000  0.55779890  1
  Pd  Pd6  1  0.00000000  0.00000000  0.60704798  1
  Pd  Pd7  1  0.33333300  0.33333300  0.60704798  1
  Pd  Pd8  1  0.66666700  0.66666700  0.60704798  1
  Pt  Pt9  1  0.00000000  0.00000000  0.39528136  1
  Pt  Pt10  1  0.33333300  0.33333300  0.39528136  1
  Pt  Pt11  1  0.66666700  0.66666700  0.39528136  1
  Se  Se12  1  0.66666700  0.00000000  0.43624572  1
  Se  Se13  1  0.33333300  0.00000000  0.35386375  1
  Se  Se14  1  0.66666700  0.33333300  0.35386375  1
  Se  Se15  1  0.00000000  0.66666700  0.35386375  1
  Se  Se16  1  0.33333300  0.66666700  0.43624572  1
  Se  Se17  1  0.00000000  0.33333300  0.43624572  1
