# generated using pymatgen
data_Cr4Te6Pd3Se8
_symmetry_space_group_name_H-M   'P 1'
_cell_length_a   6.68943500
_cell_length_b   6.68943556
_cell_length_c   30.00000000
_cell_angle_alpha   90.00000000
_cell_angle_beta   90.00000000
_cell_angle_gamma   59.99999780
_symmetry_Int_Tables_number   1
_chemical_formula_structural   Cr4Te6Pd3Se8
_chemical_formula_sum   'Cr4 Te6 Pd3 Se8'
_cell_volume   1162.60125960
_cell_formula_units_Z   1
loop_
 _symmetry_equiv_pos_site_id
 _symmetry_equiv_pos_as_xyz
  1  'x, y, z'
loop_
 _atom_site_type_symbol
 _atom_site_label
 _atom_site_symmetry_multiplicity
 _atom_site_fract_x
 _atom_site_fract_y
 _atom_site_fract_z
 _atom_site_occupancy
  Cr  Cr0  1  0.99941718  0.49802230  0.39395617  1
  Cr  Cr1  1  0.49802230  0.50256052  0.39395617  1
  Cr  Cr2  1  0.50256052  0.99941718  0.39395617  1
  Cr  Cr3  1  0.00000000  0.00000000  0.39431676  1
  Te  Te4  1  0.98128864  0.35303304  0.54865637  1
  Te  Te5  1  0.35303304  0.66567831  0.54865637  1
  Te  Te6  1  0.66567831  0.98128864  0.54865637  1
  Te  Te7  1  0.31532193  0.01698588  0.64759966  1
  Te  Te8  1  0.66769219  0.31532193  0.64759966  1
  Te  Te9  1  0.01698588  0.66769219  0.64759966  1
  Pd  Pd10  1  0.00000000  0.00000000  0.59473250  1
  Pd  Pd11  1  0.66666700  0.66666700  0.60329812  1
  Pd  Pd12  1  0.33333300  0.33333300  0.59535277  1
  Se  Se13  1  0.16825810  0.16454266  0.34317777  1
  Se  Se14  1  0.16454266  0.66720024  0.34317777  1
  Se  Se15  1  0.66720024  0.16825810  0.34317777  1
  Se  Se16  1  0.66666700  0.66666700  0.34290799  1
  Se  Se17  1  0.17061123  0.16335542  0.44455790  1
  Se  Se18  1  0.16335542  0.66603436  0.44455790  1
  Se  Se19  1  0.66603436  0.17061123  0.44455790  1
  Se  Se20  1  0.66666700  0.66666700  0.44468726  1
