# generated using pymatgen
data_Zr7(Se3O4)2
_symmetry_space_group_name_H-M   'P 1'
_cell_length_a   6.55046700
_cell_length_b   6.55046603
_cell_length_c   30.00000000
_cell_angle_alpha   90.00000000
_cell_angle_beta   90.00000000
_cell_angle_gamma   60.00000016
_symmetry_Int_Tables_number   1
_chemical_formula_structural   Zr7(Se3O4)2
_chemical_formula_sum   'Zr7 Se6 O8'
_cell_volume   1114.79843191
_cell_formula_units_Z   1
loop_
 _symmetry_equiv_pos_site_id
 _symmetry_equiv_pos_as_xyz
  1  'x, y, z'
loop_
 _atom_site_type_symbol
 _atom_site_label
 _atom_site_symmetry_multiplicity
 _atom_site_fract_x
 _atom_site_fract_y
 _atom_site_fract_z
 _atom_site_occupancy
  Zr  Zr0  1  0.00000000  0.00000000  0.58588208  1
  Zr  Zr1  1  0.99989298  0.49998700  0.58530442  1
  Zr  Zr2  1  0.50012002  0.99989298  0.58530442  1
  Zr  Zr3  1  0.49998700  0.50012002  0.58530442  1
  Zr  Zr4  1  0.66666700  0.66666700  0.39500316  1
  Zr  Zr5  1  0.33333300  0.33333300  0.39604994  1
  Zr  Zr6  1  0.00000000  0.00000000  0.39597273  1
  Se  Se7  1  0.33463619  0.99856850  0.44843589  1
  Se  Se8  1  0.66663850  0.00116474  0.34265857  1
  Se  Se9  1  0.33219676  0.66663850  0.34265857  1
  Se  Se10  1  0.00116474  0.33219676  0.34265857  1
  Se  Se11  1  0.99856850  0.66679531  0.44843589  1
  Se  Se12  1  0.66679531  0.33463619  0.44843589  1
  O  O13  1  0.33333300  0.33333300  0.61746992  1
  O  O14  1  0.33399244  0.83303625  0.61769085  1
  O  O15  1  0.66666700  0.66666700  0.55315226  1
  O  O16  1  0.66739442  0.16560285  0.55346057  1
  O  O17  1  0.16700373  0.66739442  0.55346057  1
  O  O18  1  0.16560285  0.16700373  0.55346057  1
  O  O19  1  0.83297031  0.33399244  0.61769085  1
  O  O20  1  0.83303625  0.83297031  0.61769085  1
