# generated using pymatgen
data_Te6Pd4W3O8
_symmetry_space_group_name_H-M   'P 1'
_cell_length_a   6.16828071
_cell_length_b   6.16828000
_cell_length_c   30.00000000
_cell_angle_alpha   90.00000000
_cell_angle_beta   90.00000000
_cell_angle_gamma   60.00000382
_symmetry_Int_Tables_number   1
_chemical_formula_structural   Te6Pd4W3O8
_chemical_formula_sum   'Te6 Pd4 W3 O8'
_cell_volume   988.50782738
_cell_formula_units_Z   1
loop_
 _symmetry_equiv_pos_site_id
 _symmetry_equiv_pos_as_xyz
  1  'x, y, z'
loop_
 _atom_site_type_symbol
 _atom_site_label
 _atom_site_symmetry_multiplicity
 _atom_site_fract_x
 _atom_site_fract_y
 _atom_site_fract_z
 _atom_site_occupancy
  Te  Te0  1  0.66719044  0.99766601  0.45313729  1
  Te  Te1  1  0.99766601  0.33514354  0.45313729  1
  Te  Te2  1  0.66646585  0.00113445  0.33285496  1
  Te  Te3  1  0.33239969  0.66646585  0.33285496  1
  Te  Te4  1  0.00113445  0.33239969  0.33285496  1
  Te  Te5  1  0.33514354  0.66719044  0.45313729  1
  Pd  Pd6  1  0.00000000  0.00000000  0.58220277  1
  Pd  Pd7  1  0.50000237  0.50022016  0.58230412  1
  Pd  Pd8  1  0.50022016  0.99977747  0.58230412  1
  Pd  Pd9  1  0.99977747  0.50000237  0.58230412  1
  W  W10  1  0.00000000  0.00000000  0.39317163  1
  W  W11  1  0.33333300  0.33333300  0.39330207  1
  W  W12  1  0.66666700  0.66666700  0.39257060  1
  O  O13  1  0.66666700  0.66666700  0.54942534  1
  O  O14  1  0.33245478  0.83491605  0.61490717  1
  O  O15  1  0.33333300  0.33333300  0.61472955  1
  O  O16  1  0.16549662  0.66639002  0.54933447  1
  O  O17  1  0.83262818  0.33245478  0.61490717  1
  O  O18  1  0.16811436  0.16549662  0.54933447  1
  O  O19  1  0.66639002  0.16811436  0.54933447  1
  O  O20  1  0.83491605  0.83262818  0.61490717  1
