# generated using pymatgen
data_Zr3(Mo2Se7)2
_symmetry_space_group_name_H-M   'P 1'
_cell_length_a   6.52557635
_cell_length_b   6.52557600
_cell_length_c   30.00000000
_cell_angle_alpha   90.00000000
_cell_angle_beta   90.00000000
_cell_angle_gamma   60.00000180
_symmetry_Int_Tables_number   1
_chemical_formula_structural   Zr3(Mo2Se7)2
_chemical_formula_sum   'Zr3 Mo4 Se14'
_cell_volume   1106.34256597
_cell_formula_units_Z   1
loop_
 _symmetry_equiv_pos_site_id
 _symmetry_equiv_pos_as_xyz
  1  'x, y, z'
loop_
 _atom_site_type_symbol
 _atom_site_label
 _atom_site_symmetry_multiplicity
 _atom_site_fract_x
 _atom_site_fract_y
 _atom_site_fract_z
 _atom_site_occupancy
  Zr  Zr0  1  0.66666700  0.66666700  0.38110432  1
  Zr  Zr1  1  0.33333300  0.33333300  0.39136241  1
  Zr  Zr2  1  0.00000000  0.00000000  0.39272307  1
  Mo  Mo3  1  0.00000000  0.00000000  0.61174630  1
  Mo  Mo4  1  0.99972701  0.50112983  0.61177016  1
  Mo  Mo5  1  0.49914316  0.99972701  0.61177016  1
  Mo  Mo6  1  0.50112983  0.49914316  0.61177016  1
  Se  Se7  1  0.34295623  0.99153237  0.44390556  1
  Se  Se8  1  0.00865832  0.66748671  0.33282155  1
  Se  Se9  1  0.66748671  0.32385497  0.33282155  1
  Se  Se10  1  0.32385497  0.00865832  0.33282155  1
  Se  Se11  1  0.66666778  0.16589765  0.66794304  1
  Se  Se12  1  0.66551140  0.34295623  0.44390556  1
  Se  Se13  1  0.16743556  0.66666778  0.66794304  1
  Se  Se14  1  0.16589765  0.16743556  0.66794304  1
  Se  Se15  1  0.66666700  0.66666700  0.55544598  1
  Se  Se16  1  0.66641422  0.16518798  0.55566868  1
  Se  Se17  1  0.16839880  0.66641422  0.55566868  1
  Se  Se18  1  0.16518798  0.16839880  0.55566868  1
  Se  Se19  1  0.66666700  0.66666700  0.66797995  1
  Se  Se20  1  0.99153237  0.66551140  0.44390556  1
