# generated using pymatgen
data_Ni4W3(S3O4)2
_symmetry_space_group_name_H-M   'P 1'
_cell_length_a   5.59481842
_cell_length_b   5.59481800
_cell_length_c   30.00000000
_cell_angle_alpha   90.00000000
_cell_angle_beta   90.00000000
_cell_angle_gamma   60.00000247
_symmetry_Int_Tables_number   1
_chemical_formula_structural   Ni4W3(S3O4)2
_chemical_formula_sum   'Ni4 W3 S6 O8'
_cell_volume   813.24959666
_cell_formula_units_Z   1
loop_
 _symmetry_equiv_pos_site_id
 _symmetry_equiv_pos_as_xyz
  1  'x, y, z'
loop_
 _atom_site_type_symbol
 _atom_site_label
 _atom_site_symmetry_multiplicity
 _atom_site_fract_x
 _atom_site_fract_y
 _atom_site_fract_z
 _atom_site_occupancy
  Ni  Ni0  1  0.00000000  0.00000000  0.58078942  1
  Ni  Ni1  1  0.99983563  0.49986487  0.58076659  1
  Ni  Ni2  1  0.50029950  0.99983563  0.58076659  1
  Ni  Ni3  1  0.49986487  0.50029950  0.58076659  1
  W  W4  1  0.66666700  0.66666700  0.40164385  1
  W  W5  1  0.33333300  0.33333300  0.40189426  1
  W  W6  1  0.00000000  0.00000000  0.40187681  1
  S  S7  1  0.99893067  0.33434797  0.45328206  1
  S  S8  1  0.66664172  0.00046434  0.35011428  1
  S  S9  1  0.33289395  0.66664172  0.35011428  1
  S  S10  1  0.00046434  0.33289395  0.35011428  1
  S  S11  1  0.66672136  0.99893067  0.45328206  1
  S  S12  1  0.33434797  0.66672136  0.45328206  1
  O  O13  1  0.33333300  0.33333300  0.61267509  1
  O  O14  1  0.33325471  0.83375404  0.61270955  1
  O  O15  1  0.66666700  0.66666700  0.54862073  1
  O  O16  1  0.66655954  0.16780254  0.54876413  1
  O  O17  1  0.16563892  0.66655954  0.54876413  1
  O  O18  1  0.16780254  0.16563892  0.54876413  1
  O  O19  1  0.83299025  0.33325471  0.61270955  1
  O  O20  1  0.83375404  0.83299025  0.61270955  1
