# generated using pymatgen
data_Zr4Ni7(Se4O7)2
_symmetry_space_group_name_H-M   'P 1'
_cell_length_a   7.54555138
_cell_length_b   7.54555200
_cell_length_c   30.00000000
_cell_angle_alpha   90.00000000
_cell_angle_beta   90.00000000
_cell_angle_gamma   59.99999728
_symmetry_Int_Tables_number   1
_chemical_formula_structural   Zr4Ni7(Se4O7)2
_chemical_formula_sum   'Zr4 Ni7 Se8 O14'
_cell_volume   1479.22375127
_cell_formula_units_Z   1
loop_
 _symmetry_equiv_pos_site_id
 _symmetry_equiv_pos_as_xyz
  1  'x, y, z'
loop_
 _atom_site_type_symbol
 _atom_site_label
 _atom_site_symmetry_multiplicity
 _atom_site_fract_x
 _atom_site_fract_y
 _atom_site_fract_z
 _atom_site_occupancy
  Zr  Zr0  1  0.00000000  0.00000000  0.40441999  1
  Zr  Zr1  1  0.50076174  0.99961895  0.40442110  1
  Zr  Zr2  1  0.49961931  0.50076174  0.40442110  1
  Zr  Zr3  1  0.99961895  0.49961931  0.40442110  1
  Ni  Ni4  1  0.71422107  0.85730519  0.58143179  1
  Ni  Ni5  1  0.00000000  0.00000000  0.58131534  1
  Ni  Ni6  1  0.42847374  0.71422107  0.58143179  1
  Ni  Ni7  1  0.57177143  0.28572530  0.58159612  1
  Ni  Ni8  1  0.14250327  0.57177143  0.58159612  1
  Ni  Ni9  1  0.28572530  0.14250327  0.58159612  1
  Ni  Ni10  1  0.85730519  0.42847374  0.58143179  1
  Se  Se11  1  0.33333300  0.33333300  0.45670153  1
  Se  Se12  1  0.66666700  0.66666700  0.35089414  1
  Se  Se13  1  0.66675837  0.16640405  0.35095102  1
  Se  Se14  1  0.16683858  0.66675837  0.35095102  1
  Se  Se15  1  0.16640405  0.16683858  0.35095102  1
  Se  Se16  1  0.33303225  0.83323930  0.45717701  1
  Se  Se17  1  0.83372745  0.33303225  0.45717701  1
  Se  Se18  1  0.83323930  0.83372745  0.45717701  1
  O  O19  1  0.66666700  0.66666700  0.61252532  1
  O  O20  1  0.09500077  0.38079128  0.61261405  1
  O  O21  1  0.95214854  0.81025837  0.61257139  1
  O  O22  1  0.52420795  0.09500077  0.61261405  1
  O  O23  1  0.23759309  0.95214854  0.61257139  1
  O  O24  1  0.76148952  0.04829766  0.55013612  1
  O  O25  1  0.90476448  0.61874404  0.55018325  1
  O  O26  1  0.47649148  0.90476448  0.55018325  1
  O  O27  1  0.61874404  0.47649148  0.55018325  1
  O  O28  1  0.19021282  0.76148952  0.55013612  1
  O  O29  1  0.33333300  0.33333300  0.55044013  1
  O  O30  1  0.04829766  0.19021282  0.55013612  1
  O  O31  1  0.81025837  0.23759309  0.61257139  1
  O  O32  1  0.38079128  0.52420795  0.61261405  1
