# generated using pymatgen
data_TiTe2PtSe2
_symmetry_space_group_name_H-M   'P 1'
_cell_length_a   6.48027400
_cell_length_b   6.48027408
_cell_length_c   30.00000000
_cell_angle_alpha   90.00000000
_cell_angle_beta   90.00000000
_cell_angle_gamma   60.00000041
_symmetry_Int_Tables_number   1
_chemical_formula_structural   TiTe2PtSe2
_chemical_formula_sum   'Ti3 Te6 Pt3 Se6'
_cell_volume   1091.03487211
_cell_formula_units_Z   3
loop_
 _symmetry_equiv_pos_site_id
 _symmetry_equiv_pos_as_xyz
  1  'x, y, z'
loop_
 _atom_site_type_symbol
 _atom_site_label
 _atom_site_symmetry_multiplicity
 _atom_site_fract_x
 _atom_site_fract_y
 _atom_site_fract_z
 _atom_site_occupancy
  Ti  Ti0  1  0.66666700  0.66666700  0.39648473  1
  Ti  Ti1  1  0.33333300  0.33333300  0.39648473  1
  Ti  Ti2  1  0.00000000  0.00000000  0.39648473  1
  Te  Te3  1  0.00000000  0.66666700  0.45501953  1
  Te  Te4  1  0.33333300  0.00000000  0.45501953  1
  Te  Te5  1  0.00000000  0.66666700  0.33725927  1
  Te  Te6  1  0.66666700  0.33333300  0.33725927  1
  Te  Te7  1  0.33333300  0.00000000  0.33725927  1
  Te  Te8  1  0.66666700  0.33333300  0.45501953  1
  Pt  Pt9  1  0.00000000  0.00000000  0.58736878  1
  Pt  Pt10  1  0.66666700  0.66666700  0.58736878  1
  Pt  Pt11  1  0.33333300  0.33333300  0.58736878  1
  Se  Se12  1  0.33333300  0.00000000  0.63161135  1
  Se  Se13  1  0.66666700  0.00000000  0.54439533  1
  Se  Se14  1  0.33333300  0.66666700  0.54439533  1
  Se  Se15  1  0.00000000  0.33333300  0.54439533  1
  Se  Se16  1  0.66666700  0.33333300  0.63161135  1
  Se  Se17  1  0.00000000  0.66666700  0.63161135  1
