# generated using pymatgen
data_CrNiSe4
_symmetry_space_group_name_H-M   'P 1'
_cell_length_a   5.84700100
_cell_length_b   5.84700040
_cell_length_c   30.00000000
_cell_angle_alpha   90.00000000
_cell_angle_beta   90.00000000
_cell_angle_gamma   60.00000227
_symmetry_Int_Tables_number   1
_chemical_formula_structural   CrNiSe4
_chemical_formula_sum   'Cr3 Ni3 Se12'
_cell_volume   888.21517382
_cell_formula_units_Z   3
loop_
 _symmetry_equiv_pos_site_id
 _symmetry_equiv_pos_as_xyz
  1  'x, y, z'
loop_
 _atom_site_type_symbol
 _atom_site_label
 _atom_site_symmetry_multiplicity
 _atom_site_fract_x
 _atom_site_fract_y
 _atom_site_fract_z
 _atom_site_occupancy
  Cr  Cr0  1  0.66666700  0.66666700  0.39362386  1
  Cr  Cr1  1  0.33333300  0.33333300  0.39362386  1
  Cr  Cr2  1  0.00000000  0.00000000  0.39362386  1
  Ni  Ni3  1  0.00000000  0.00000000  0.59527927  1
  Ni  Ni4  1  0.33333300  0.33333300  0.59527927  1
  Ni  Ni5  1  0.66666700  0.66666700  0.59527927  1
  Se  Se6  1  0.33333300  0.00000000  0.44416820  1
  Se  Se7  1  0.00000000  0.66666700  0.34287399  1
  Se  Se8  1  0.66666700  0.33333300  0.34287399  1
  Se  Se9  1  0.33333300  0.00000000  0.34287399  1
  Se  Se10  1  0.00000000  0.66666700  0.64059377  1
  Se  Se11  1  0.66666700  0.33333300  0.64059377  1
  Se  Se12  1  0.33333300  0.00000000  0.64059377  1
  Se  Se13  1  0.66666700  0.00000000  0.55066490  1
  Se  Se14  1  0.33333300  0.66666700  0.55066490  1
  Se  Se15  1  0.00000000  0.33333300  0.55066490  1
  Se  Se16  1  0.66666700  0.33333300  0.44416820  1
  Se  Se17  1  0.00000000  0.66666700  0.44416820  1
