# generated using pymatgen
data_TiTe2WS2
_symmetry_space_group_name_H-M   'P 1'
_cell_length_a   3.48257352
_cell_length_b   3.48257400
_cell_length_c   30.00000000
_cell_angle_alpha   90.00000000
_cell_angle_beta   90.00000000
_cell_angle_gamma   59.99999544
_symmetry_Int_Tables_number   1
_chemical_formula_structural   TiTe2WS2
_chemical_formula_sum   'Ti1 Te2 W1 S2'
_cell_volume   315.10298209
_cell_formula_units_Z   1
loop_
 _symmetry_equiv_pos_site_id
 _symmetry_equiv_pos_as_xyz
  1  'x, y, z'
loop_
 _atom_site_type_symbol
 _atom_site_label
 _atom_site_symmetry_multiplicity
 _atom_site_fract_x
 _atom_site_fract_y
 _atom_site_fract_z
 _atom_site_occupancy
  Ti  Ti0  1  0.00000000  0.00000000  0.60856065  1
  Te  Te1  1  0.33333300  0.33333300  0.31723109  1
  Te  Te2  1  0.33333300  0.33333300  0.43961611  1
  W  W3  1  0.00000000  0.00000000  0.37839867  1
  S  S4  1  0.33333300  0.33333300  0.56226734  1
  S  S5  1  0.66666700  0.66666700  0.65486015  1
