# generated using pymatgen
data_Zr3Pd4(Se3O4)2
_symmetry_space_group_name_H-M   'P 1'
_cell_length_a   6.29965142
_cell_length_b   6.29965142
_cell_length_c   30.00000000
_cell_angle_alpha   90.00000000
_cell_angle_beta   90.00000000
_cell_angle_gamma   60.00000607
_symmetry_Int_Tables_number   1
_chemical_formula_structural   Zr3Pd4(Se3O4)2
_chemical_formula_sum   'Zr3 Pd4 Se6 O8'
_cell_volume   1031.06240493
_cell_formula_units_Z   1
loop_
 _symmetry_equiv_pos_site_id
 _symmetry_equiv_pos_as_xyz
  1  'x, y, z'
loop_
 _atom_site_type_symbol
 _atom_site_label
 _atom_site_symmetry_multiplicity
 _atom_site_fract_x
 _atom_site_fract_y
 _atom_site_fract_z
 _atom_site_occupancy
  Zr  Zr0  1  0.66673115  0.66662494  0.39325226  1
  Zr  Zr1  1  0.33335043  0.33336821  0.40284709  1
  Zr  Zr2  1  0.99999032  0.00000011  0.40467605  1
  Pd  Pd3  1  0.99999455  0.99999839  0.57998436  1
  Pd  Pd4  1  0.99989632  0.49993523  0.58002415  1
  Pd  Pd5  1  0.50017340  0.99989733  0.58002171  1
  Pd  Pd6  1  0.49992669  0.50017456  0.58002270  1
  Se  Se7  1  0.34401142  0.99089660  0.45670460  1
  Se  Se8  1  0.00950266  0.66818238  0.34331384  1
  Se  Se9  1  0.66825213  0.32236945  0.34331569  1
  Se  Se10  1  0.32237303  0.00945785  0.34332761  1
  Se  Se11  1  0.99099551  0.66500930  0.45674259  1
  Se  Se12  1  0.66509913  0.34408840  0.45674111  1
  O  O13  1  0.33333455  0.33333343  0.61129110  1
  O  O14  1  0.33285869  0.83269951  0.61132143  1
  O  O15  1  0.66666608  0.66666972  0.54859908  1
  O  O16  1  0.66658423  0.16577870  0.54861799  1
  O  O17  1  0.16763319  0.66658488  0.54861826  1
  O  O18  1  0.16578537  0.16762973  0.54861624  1
  O  O19  1  0.83444159  0.33285826  0.61132117  1
  O  O20  1  0.83269956  0.83444302  0.61132197  1
