# generated using pymatgen
data_Hf3(W2S7)2
_symmetry_space_group_name_H-M   'P 1'
_cell_length_a   6.25427832
_cell_length_b   6.25427800
_cell_length_c   30.00000000
_cell_angle_alpha   90.00000000
_cell_angle_beta   90.00000000
_cell_angle_gamma   60.00000169
_symmetry_Int_Tables_number   1
_chemical_formula_structural   Hf3(W2S7)2
_chemical_formula_sum   'Hf3 W4 S14'
_cell_volume   1016.26338616
_cell_formula_units_Z   1
loop_
 _symmetry_equiv_pos_site_id
 _symmetry_equiv_pos_as_xyz
  1  'x, y, z'
loop_
 _atom_site_type_symbol
 _atom_site_label
 _atom_site_symmetry_multiplicity
 _atom_site_fract_x
 _atom_site_fract_y
 _atom_site_fract_z
 _atom_site_occupancy
  Hf  Hf0  1  0.00000000  0.00000000  0.60204839  1
  Hf  Hf1  1  0.33333300  0.33333300  0.60311477  1
  Hf  Hf2  1  0.66666700  0.66666700  0.61239306  1
  W  W3  1  0.49940904  0.50074593  0.39281737  1
  W  W4  1  0.50074593  0.99984503  0.39281737  1
  W  W5  1  0.00000000  0.00000000  0.39280763  1
  W  W6  1  0.99984503  0.49940904  0.39281737  1
  S  S7  1  0.32622830  0.66708266  0.65723592  1
  S  S8  1  0.66708266  0.00668904  0.65723592  1
  S  S9  1  0.66596362  0.99368696  0.55459809  1
  S  S10  1  0.66650299  0.16793642  0.44566584  1
  S  S11  1  0.34034942  0.66596362  0.55459809  1
  S  S12  1  0.99368696  0.34034942  0.55459809  1
  S  S13  1  0.16718397  0.16616034  0.33984342  1
  S  S14  1  0.16616034  0.66665669  0.33984342  1
  S  S15  1  0.66665669  0.16718397  0.33984342  1
  S  S16  1  0.66666700  0.66666700  0.33984298  1
  S  S17  1  0.16793642  0.16556159  0.44566584  1
  S  S18  1  0.16556159  0.66650299  0.44566584  1
  S  S19  1  0.00668904  0.32622830  0.65723592  1
  S  S20  1  0.66666700  0.66666700  0.44588825  1
