# generated using pymatgen
data_Hf3(W2S7)2
_symmetry_space_group_name_H-M   'P 1'
_cell_length_a   6.34798451
_cell_length_b   6.34798400
_cell_length_c   30.00000000
_cell_angle_alpha   90.00000000
_cell_angle_beta   90.00000000
_cell_angle_gamma   60.00000268
_symmetry_Int_Tables_number   1
_chemical_formula_structural   Hf3(W2S7)2
_chemical_formula_sum   'Hf3 W4 S14'
_cell_volume   1046.94430823
_cell_formula_units_Z   1
loop_
 _symmetry_equiv_pos_site_id
 _symmetry_equiv_pos_as_xyz
  1  'x, y, z'
loop_
 _atom_site_type_symbol
 _atom_site_label
 _atom_site_symmetry_multiplicity
 _atom_site_fract_x
 _atom_site_fract_y
 _atom_site_fract_z
 _atom_site_occupancy
  Hf  Hf0  1  0.00000000  0.00000000  0.60247025  1
  Hf  Hf1  1  0.33333300  0.33333300  0.60254198  1
  Hf  Hf2  1  0.66666700  0.66666700  0.60270624  1
  W  W3  1  0.50044520  0.49966487  0.39226977  1
  W  W4  1  0.49966487  0.99988992  0.39226977  1
  W  W5  1  0.00000000  0.00000000  0.39225174  1
  W  W6  1  0.99988992  0.50044520  0.39226977  1
  S  S7  1  0.66668088  0.00031363  0.65025710  1
  S  S8  1  0.00031363  0.33300549  0.65025710  1
  S  S9  1  0.99939911  0.66661894  0.55505682  1
  S  S10  1  0.66655492  0.16585548  0.44453713  1
  S  S11  1  0.66661894  0.33398194  0.55505682  1
  S  S12  1  0.33398194  0.99939911  0.55505682  1
  S  S13  1  0.16637332  0.16693982  0.33986907  1
  S  S14  1  0.16693982  0.66668786  0.33986907  1
  S  S15  1  0.66668786  0.16637332  0.33986907  1
  S  S16  1  0.66666700  0.66666700  0.33988368  1
  S  S17  1  0.16585548  0.16759060  0.44453713  1
  S  S18  1  0.16759060  0.66655492  0.44453713  1
  S  S19  1  0.33300549  0.66668088  0.65025710  1
  S  S20  1  0.66666700  0.66666700  0.44475342  1
