# generated using pymatgen
data_Zr3Mo4(Se3S4)2
_symmetry_space_group_name_H-M   'P 1'
_cell_length_a   6.46995218
_cell_length_b   6.46995218
_cell_length_c   30.00000000
_cell_angle_alpha   90.00000000
_cell_angle_beta   90.00000000
_cell_angle_gamma   59.99999817
_symmetry_Int_Tables_number   1
_chemical_formula_structural   Zr3Mo4(Se3S4)2
_chemical_formula_sum   'Zr3 Mo4 Se6 S8'
_cell_volume   1087.56198777
_cell_formula_units_Z   1
loop_
 _symmetry_equiv_pos_site_id
 _symmetry_equiv_pos_as_xyz
  1  'x, y, z'
loop_
 _atom_site_type_symbol
 _atom_site_label
 _atom_site_symmetry_multiplicity
 _atom_site_fract_x
 _atom_site_fract_y
 _atom_site_fract_z
 _atom_site_occupancy
  Zr  Zr0  1  0.00000000  0.00000000  0.60642385  1
  Zr  Zr1  1  0.33333300  0.33333300  0.60682982  1
  Zr  Zr2  1  0.66666700  0.66666700  0.60811014  1
  Mo  Mo3  1  0.50077533  0.49937135  0.39248170  1
  Mo  Mo4  1  0.49937135  0.99985332  0.39248170  1
  Mo  Mo5  1  0.00000000  0.00000000  0.39245564  1
  Mo  Mo6  1  0.99985332  0.50077533  0.39248170  1
  Se  Se7  1  0.66708649  0.00151113  0.66087153  1
  Se  Se8  1  0.00151113  0.33140238  0.66087153  1
  Se  Se9  1  0.99807774  0.66621322  0.55360766  1
  Se  Se10  1  0.66621322  0.33570904  0.55360766  1
  Se  Se11  1  0.33570904  0.99807774  0.55360766  1
  Se  Se12  1  0.33140238  0.66708649  0.66087153  1
  S  S13  1  0.66660011  0.16529480  0.44379406  1
  S  S14  1  0.16608632  0.16732933  0.34099572  1
  S  S15  1  0.16732933  0.66658535  0.34099572  1
  S  S16  1  0.66658535  0.16608632  0.34099572  1
  S  S17  1  0.66666700  0.66666700  0.34101718  1
  S  S18  1  0.16529480  0.16810609  0.44379406  1
  S  S19  1  0.16810609  0.66660011  0.44379406  1
  S  S20  1  0.66666700  0.66666700  0.44404637  1
