# generated using pymatgen
data_Sn4W7(Se4O7)2
_symmetry_space_group_name_H-M   'P 1'
_cell_length_a   7.61018565
_cell_length_b   7.61018600
_cell_length_c   30.00000000
_cell_angle_alpha   90.00000000
_cell_angle_beta   90.00000000
_cell_angle_gamma   59.99999848
_symmetry_Int_Tables_number   1
_chemical_formula_structural   Sn4W7(Se4O7)2
_chemical_formula_sum   'Sn4 W7 Se8 O14'
_cell_volume   1504.67395183
_cell_formula_units_Z   1
loop_
 _symmetry_equiv_pos_site_id
 _symmetry_equiv_pos_as_xyz
  1  'x, y, z'
loop_
 _atom_site_type_symbol
 _atom_site_label
 _atom_site_symmetry_multiplicity
 _atom_site_fract_x
 _atom_site_fract_y
 _atom_site_fract_z
 _atom_site_occupancy
  Sn  Sn0  1  0.00000000  0.00000000  0.60124056  1
  Sn  Sn1  1  0.00002708  0.49968644  0.60142034  1
  Sn  Sn2  1  0.50028648  0.00002708  0.60142034  1
  Sn  Sn3  1  0.49968644  0.50028648  0.60142034  1
  W  W4  1  0.71438265  0.85697822  0.40620562  1
  W  W5  1  0.85697822  0.42863913  0.40620562  1
  W  W6  1  0.57142144  0.28558734  0.40622827  1
  W  W7  1  0.14299122  0.57142144  0.40622827  1
  W  W8  1  0.28558734  0.14299122  0.40622827  1
  W  W9  1  0.00000000  0.00000000  0.40591573  1
  W  W10  1  0.42863913  0.71438265  0.40620562  1
  Se  Se11  1  0.83398633  0.33312614  0.65508503  1
  Se  Se12  1  0.33333300  0.33333300  0.65525195  1
  Se  Se13  1  0.33312614  0.83288653  0.65508503  1
  Se  Se14  1  0.66666700  0.66666700  0.54762552  1
  Se  Se15  1  0.66579273  0.16891940  0.54781381  1
  Se  Se16  1  0.16528887  0.66579273  0.54781381  1
  Se  Se17  1  0.16891940  0.16528887  0.54781381  1
  Se  Se18  1  0.83288653  0.83398633  0.65508503  1
  O  O19  1  0.47592263  0.90512065  0.44717958  1
  O  O20  1  0.61895671  0.47592263  0.44717958  1
  O  O21  1  0.19037483  0.76278156  0.44691219  1
  O  O22  1  0.33333300  0.33333300  0.44725788  1
  O  O23  1  0.04684361  0.19037483  0.44691219  1
  O  O24  1  0.76153189  0.04756530  0.36515576  1
  O  O25  1  0.19090281  0.76153189  0.36515576  1
  O  O26  1  0.47622888  0.90482153  0.36530672  1
  O  O27  1  0.61894959  0.47622888  0.36530672  1
  O  O28  1  0.33333300  0.33333300  0.36533939  1
  O  O29  1  0.04756530  0.19090281  0.36515576  1
  O  O30  1  0.90512065  0.61895671  0.44717958  1
  O  O31  1  0.90482153  0.61894959  0.36530672  1
  O  O32  1  0.76278156  0.04684361  0.44691219  1
