# generated using pymatgen
data_Sn4Ge7(Se4O7)2
_symmetry_space_group_name_H-M   'P 1'
_cell_length_a   7.69988250
_cell_length_b   7.69988200
_cell_length_c   30.00000000
_cell_angle_alpha   90.00000000
_cell_angle_beta   90.00000000
_cell_angle_gamma   60.00000216
_symmetry_Int_Tables_number   1
_chemical_formula_structural   Sn4Ge7(Se4O7)2
_chemical_formula_sum   'Sn4 Ge7 Se8 O14'
_cell_volume   1540.35230824
_cell_formula_units_Z   1
loop_
 _symmetry_equiv_pos_site_id
 _symmetry_equiv_pos_as_xyz
  1  'x, y, z'
loop_
 _atom_site_type_symbol
 _atom_site_label
 _atom_site_symmetry_multiplicity
 _atom_site_fract_x
 _atom_site_fract_y
 _atom_site_fract_z
 _atom_site_occupancy
  Sn  Sn0  1  0.00000000  0.00000000  0.39411481  1
  Sn  Sn1  1  0.49993973  0.99996045  0.39388898  1
  Sn  Sn2  1  0.50009982  0.49993973  0.39388898  1
  Sn  Sn3  1  0.99996045  0.50009982  0.39388898  1
  Ge  Ge4  1  0.85706953  0.42860422  0.58780896  1
  Ge  Ge5  1  0.00000000  0.00000000  0.58829693  1
  Ge  Ge6  1  0.57141557  0.28564576  0.58786578  1
  Ge  Ge7  1  0.42860422  0.71432624  0.58780896  1
  Ge  Ge8  1  0.28564576  0.14293867  0.58786578  1
  Ge  Ge9  1  0.14293867  0.57141557  0.58786578  1
  Ge  Ge10  1  0.71432624  0.85706953  0.58780896  1
  Se  Se11  1  0.33333300  0.33333300  0.44719795  1
  Se  Se12  1  0.66666700  0.66666700  0.34053342  1
  Se  Se13  1  0.66697248  0.16708654  0.34069177  1
  Se  Se14  1  0.16594198  0.66697248  0.34069177  1
  Se  Se15  1  0.16708654  0.16594198  0.34069177  1
  Se  Se16  1  0.33407992  0.83169179  0.44712578  1
  Se  Se17  1  0.83422729  0.33407992  0.44712578  1
  Se  Se18  1  0.83169179  0.83422729  0.44712578  1
  O  O19  1  0.76146067  0.04749428  0.62085487  1
  O  O20  1  0.90465465  0.61898764  0.62066605  1
  O  O21  1  0.04749428  0.19104505  0.62085487  1
  O  O22  1  0.33333300  0.33333300  0.62068161  1
  O  O23  1  0.19104505  0.76146067  0.62085487  1
  O  O24  1  0.09507297  0.38097467  0.55495060  1
  O  O25  1  0.95302245  0.80964212  0.55524287  1
  O  O26  1  0.80964212  0.23733542  0.55524287  1
  O  O27  1  0.66666700  0.66666700  0.55486133  1
  O  O28  1  0.52395236  0.09507297  0.55495060  1
  O  O29  1  0.38097467  0.52395236  0.55495060  1
  O  O30  1  0.23733542  0.95302245  0.55524287  1
  O  O31  1  0.61898764  0.47635771  0.62066605  1
  O  O32  1  0.47635771  0.90465465  0.62066605  1
