# generated using pymatgen
data_TiTe2PdSe2
_symmetry_space_group_name_H-M   'P 1'
_cell_length_a   3.73398400
_cell_length_b   3.73398400
_cell_length_c   30.00000000
_cell_angle_alpha   90.00000000
_cell_angle_beta   90.00000000
_cell_angle_gamma   59.99999999
_symmetry_Int_Tables_number   1
_chemical_formula_structural   TiTe2PdSe2
_chemical_formula_sum   'Ti1 Te2 Pd1 Se2'
_cell_volume   362.24032231
_cell_formula_units_Z   1
loop_
 _symmetry_equiv_pos_site_id
 _symmetry_equiv_pos_as_xyz
  1  'x, y, z'
loop_
 _atom_site_type_symbol
 _atom_site_label
 _atom_site_symmetry_multiplicity
 _atom_site_fract_x
 _atom_site_fract_y
 _atom_site_fract_z
 _atom_site_occupancy
  Ti  Ti0  1  0.00000000  0.00000000  0.38495411  1
  Te  Te1  1  0.33333300  0.33333300  0.32503173  1
  Te  Te2  1  0.33333300  0.33333300  0.44317764  1
  Pd  Pd3  1  0.00000000  0.00000000  0.59963728  1
  Se  Se4  1  0.33333300  0.33333300  0.55617179  1
  Se  Se5  1  0.66666700  0.66666700  0.64352144  1
