# generated using pymatgen
data_Hf3Ti4(Te3Se4)2
_symmetry_space_group_name_H-M   'P 1'
_cell_length_a   6.87826456
_cell_length_b   6.87826500
_cell_length_c   30.00000000
_cell_angle_alpha   90.00000000
_cell_angle_beta   90.00000000
_cell_angle_gamma   60.00000267
_symmetry_Int_Tables_number   1
_chemical_formula_structural   Hf3Ti4(Te3Se4)2
_chemical_formula_sum   'Hf3 Ti4 Te6 Se8'
_cell_volume   1229.16356386
_cell_formula_units_Z   1
loop_
 _symmetry_equiv_pos_site_id
 _symmetry_equiv_pos_as_xyz
  1  'x, y, z'
loop_
 _atom_site_type_symbol
 _atom_site_label
 _atom_site_symmetry_multiplicity
 _atom_site_fract_x
 _atom_site_fract_y
 _atom_site_fract_z
 _atom_site_occupancy
  Hf  Hf0  1  0.00000000  0.00000000  0.61357392  1
  Hf  Hf1  1  0.33333300  0.33333300  0.61411387  1
  Hf  Hf2  1  0.66666700  0.66666700  0.62406034  1
  Ti  Ti3  1  0.49919057  0.50112289  0.38916323  1
  Ti  Ti4  1  0.50112289  0.99968654  0.38916323  1
  Ti  Ti5  1  0.00000000  0.00000000  0.39129047  1
  Ti  Ti6  1  0.99968654  0.49919057  0.38916323  1
  Te  Te7  1  0.32241432  0.66710278  0.67796502  1
  Te  Te8  1  0.66710278  0.01048290  0.67796502  1
  Te  Te9  1  0.66652512  0.98891049  0.55688030  1
  Te  Te10  1  0.34456439  0.66652512  0.55688030  1
  Te  Te11  1  0.98891049  0.34456439  0.55688030  1
  Te  Te12  1  0.01048290  0.32241432  0.67796502  1
  Se  Se13  1  0.66487339  0.17167853  0.44363511  1
  Se  Se14  1  0.16587048  0.16586747  0.33566609  1
  Se  Se15  1  0.16586747  0.66826305  0.33566609  1
  Se  Se16  1  0.66826305  0.16587048  0.33566609  1
  Se  Se17  1  0.66666700  0.66666700  0.33508141  1
  Se  Se18  1  0.17167853  0.16344908  0.44363511  1
  Se  Se19  1  0.16344908  0.66487339  0.44363511  1
  Se  Se20  1  0.66666700  0.66666700  0.44326176  1
