# generated using pymatgen
data_Cr4Sn3S14
_symmetry_space_group_name_H-M   'P 1'
_cell_length_a   6.24636200
_cell_length_b   6.24636185
_cell_length_c   30.00000000
_cell_angle_alpha   90.00000000
_cell_angle_beta   90.00000000
_cell_angle_gamma   59.99999921
_symmetry_Int_Tables_number   1
_chemical_formula_structural   Cr4Sn3S14
_chemical_formula_sum   'Cr4 Sn3 S14'
_cell_volume   1013.69235630
_cell_formula_units_Z   1
loop_
 _symmetry_equiv_pos_site_id
 _symmetry_equiv_pos_as_xyz
  1  'x, y, z'
loop_
 _atom_site_type_symbol
 _atom_site_label
 _atom_site_symmetry_multiplicity
 _atom_site_fract_x
 _atom_site_fract_y
 _atom_site_fract_z
 _atom_site_occupancy
  Cr  Cr0  1  0.99983993  0.49939612  0.39458909  1
  Cr  Cr1  1  0.49939612  0.50076394  0.39458909  1
  Cr  Cr2  1  0.50076394  0.99983993  0.39458909  1
  Cr  Cr3  1  0.00000000  0.00000000  0.39450383  1
  Sn  Sn4  1  0.00000000  0.00000000  0.60468199  1
  Sn  Sn5  1  0.66666700  0.66666700  0.60527389  1
  Sn  Sn6  1  0.33333300  0.33333300  0.60467304  1
  S  S7  1  0.66667105  0.99841317  0.55465112  1
  S  S8  1  0.33218720  0.00114466  0.65515189  1
  S  S9  1  0.66666814  0.33218720  0.65515189  1
  S  S10  1  0.00114466  0.66666814  0.65515189  1
  S  S11  1  0.99841317  0.33491577  0.55465112  1
  S  S12  1  0.66670312  0.16805562  0.44258413  1
  S  S13  1  0.16729864  0.16617159  0.34638809  1
  S  S14  1  0.16617159  0.66653077  0.34638809  1
  S  S15  1  0.66653077  0.16729864  0.34638809  1
  S  S16  1  0.66666700  0.66666700  0.34644662  1
  S  S17  1  0.16805562  0.16524226  0.44258413  1
  S  S18  1  0.16524226  0.66670312  0.44258413  1
  S  S19  1  0.33491577  0.66667105  0.55465112  1
  S  S20  1  0.66666700  0.66666700  0.44286267  1
