# generated using pymatgen
data_Zr4W7(Se4O7)2
_symmetry_space_group_name_H-M   'P 1'
_cell_length_a   7.54094394
_cell_length_b   7.54094400
_cell_length_c   30.00000000
_cell_angle_alpha   90.00000000
_cell_angle_beta   90.00000000
_cell_angle_gamma   59.99999972
_symmetry_Int_Tables_number   1
_chemical_formula_structural   Zr4W7(Se4O7)2
_chemical_formula_sum   'Zr4 W7 Se8 O14'
_cell_volume   1477.41775178
_cell_formula_units_Z   1
loop_
 _symmetry_equiv_pos_site_id
 _symmetry_equiv_pos_as_xyz
  1  'x, y, z'
loop_
 _atom_site_type_symbol
 _atom_site_label
 _atom_site_symmetry_multiplicity
 _atom_site_fract_x
 _atom_site_fract_y
 _atom_site_fract_z
 _atom_site_occupancy
  Zr  Zr0  1  0.00000000  0.00000000  0.60064412  1
  Zr  Zr1  1  0.00015148  0.50011522  0.60089200  1
  Zr  Zr2  1  0.49973330  0.00015148  0.60089200  1
  Zr  Zr3  1  0.50011522  0.49973330  0.60089200  1
  W  W4  1  0.85724944  0.42856529  0.40611013  1
  W  W5  1  0.71418527  0.85724944  0.40611013  1
  W  W6  1  0.42856529  0.71418527  0.40611013  1
  W  W7  1  0.28565219  0.14284852  0.40628607  1
  W  W8  1  0.14284852  0.57149929  0.40628607  1
  W  W9  1  0.00000000  0.00000000  0.40633116  1
  W  W10  1  0.57149929  0.28565219  0.40628607  1
  Se  Se11  1  0.83358674  0.33296975  0.65401445  1
  Se  Se12  1  0.33333300  0.33333300  0.65419153  1
  Se  Se13  1  0.33296975  0.83344251  0.65401445  1
  Se  Se14  1  0.66666700  0.66666700  0.54830266  1
  Se  Se15  1  0.66638558  0.16686859  0.54778540  1
  Se  Se16  1  0.16674683  0.66638558  0.54778540  1
  Se  Se17  1  0.16686859  0.16674683  0.54778540  1
  Se  Se18  1  0.83344251  0.83358674  0.65401445  1
  O  O19  1  0.80976574  0.23855033  0.44740009  1
  O  O20  1  0.66666700  0.66666700  0.44703037  1
  O  O21  1  0.52362315  0.09494010  0.44738580  1
  O  O22  1  0.38143675  0.52362315  0.44738580  1
  O  O23  1  0.23855033  0.95168393  0.44740009  1
  O  O24  1  0.09551707  0.38092448  0.36505816  1
  O  O25  1  0.52355845  0.09551707  0.36505816  1
  O  O26  1  0.80968149  0.23780889  0.36507906  1
  O  O27  1  0.66666700  0.66666700  0.36487972  1
  O  O28  1  0.38092448  0.52355845  0.36505816  1
  O  O29  1  0.23780889  0.95250962  0.36507906  1
  O  O30  1  0.95168393  0.80976574  0.44740009  1
  O  O31  1  0.95250962  0.80968149  0.36507906  1
  O  O32  1  0.09494010  0.38143675  0.44738580  1
