# generated using pymatgen
data_Ni3Pt4(Se3O4)2
_symmetry_space_group_name_H-M   'P 1'
_cell_length_a   6.20970364
_cell_length_b   6.20970400
_cell_length_c   30.00000000
_cell_angle_alpha   90.00000000
_cell_angle_beta   90.00000000
_cell_angle_gamma   59.99999809
_symmetry_Int_Tables_number   1
_chemical_formula_structural   Ni3Pt4(Se3O4)2
_chemical_formula_sum   'Ni3 Pt4 Se6 O8'
_cell_volume   1001.82911978
_cell_formula_units_Z   1
loop_
 _symmetry_equiv_pos_site_id
 _symmetry_equiv_pos_as_xyz
  1  'x, y, z'
loop_
 _atom_site_type_symbol
 _atom_site_label
 _atom_site_symmetry_multiplicity
 _atom_site_fract_x
 _atom_site_fract_y
 _atom_site_fract_z
 _atom_site_occupancy
  Ni  Ni0  1  0.00000000  0.00000000  0.58604314  1
  Ni  Ni1  1  0.33333300  0.33333300  0.58749066  1
  Ni  Ni2  1  0.66666700  0.66666700  0.58592271  1
  Pt  Pt3  1  0.50005429  0.49977151  0.41989470  1
  Pt  Pt4  1  0.49977151  0.00017420  0.41989470  1
  Pt  Pt5  1  0.00000000  0.00000000  0.41991004  1
  Pt  Pt6  1  0.00017420  0.50005429  0.41989470  1
  Se  Se7  1  0.66915228  0.99721438  0.62710487  1
  Se  Se8  1  0.99721438  0.33363334  0.62710487  1
  Se  Se9  1  0.00444258  0.66267431  0.54626893  1
  Se  Se10  1  0.66267431  0.33288311  0.54626893  1
  Se  Se11  1  0.33288311  0.00444258  0.54626893  1
  Se  Se12  1  0.33363334  0.66915228  0.62710487  1
  O  O13  1  0.83265119  0.83407618  0.45241601  1
  O  O14  1  0.16578975  0.16722117  0.38729067  1
  O  O15  1  0.16722117  0.66699009  0.38729067  1
  O  O16  1  0.66699009  0.16578975  0.38729067  1
  O  O17  1  0.66666700  0.66666700  0.38736989  1
  O  O18  1  0.33327163  0.83265119  0.45241601  1
  O  O19  1  0.33333300  0.33333300  0.45248203  1
  O  O20  1  0.83407618  0.33327163  0.45241601  1
