# generated using pymatgen
data_Cr4Pd3Se14
_symmetry_space_group_name_H-M   'P 1'
_cell_length_a   6.44131352
_cell_length_b   6.44131352
_cell_length_c   30.00000000
_cell_angle_alpha   90.00000000
_cell_angle_beta   90.00000000
_cell_angle_gamma   60.00000496
_symmetry_Int_Tables_number   1
_chemical_formula_structural   Cr4Pd3Se14
_chemical_formula_sum   'Cr4 Pd3 Se14'
_cell_volume   1077.95537940
_cell_formula_units_Z   1
loop_
 _symmetry_equiv_pos_site_id
 _symmetry_equiv_pos_as_xyz
  1  'x, y, z'
loop_
 _atom_site_type_symbol
 _atom_site_label
 _atom_site_symmetry_multiplicity
 _atom_site_fract_x
 _atom_site_fract_y
 _atom_site_fract_z
 _atom_site_occupancy
  Cr  Cr0  1  0.99958230  0.50162490  0.39331452  1
  Cr  Cr1  1  0.50162490  0.49879280  0.39331452  1
  Cr  Cr2  1  0.49879280  0.99958230  0.39331452  1
  Cr  Cr3  1  0.00000000  0.00000000  0.39335074  1
  Pd  Pd4  1  0.00000000  0.00000000  0.59596759  1
  Pd  Pd5  1  0.66666700  0.66666700  0.59768012  1
  Pd  Pd6  1  0.33333300  0.33333300  0.59617236  1
  Se  Se7  1  0.99572440  0.66631929  0.55286558  1
  Se  Se8  1  0.32974074  0.66696539  0.64072872  1
  Se  Se9  1  0.66696539  0.00329387  0.64072872  1
  Se  Se10  1  0.00329387  0.32974074  0.64072872  1
  Se  Se11  1  0.33795630  0.99572440  0.55286558  1
  Se  Se12  1  0.66642143  0.16440336  0.44523996  1
  Se  Se13  1  0.16541795  0.16779784  0.34124365  1
  Se  Se14  1  0.16779784  0.66678521  0.34124365  1
  Se  Se15  1  0.66678521  0.16541795  0.34124365  1
  Se  Se16  1  0.66666700  0.66666700  0.34117166  1
  Se  Se17  1  0.16440336  0.16917620  0.44523996  1
  Se  Se18  1  0.16917620  0.66642143  0.44523996  1
  Se  Se19  1  0.66631929  0.33795630  0.55286558  1
  Se  Se20  1  0.66666700  0.66666700  0.44559923  1
