# generated using pymatgen
data_Sn4Mo7(Se4O7)2
_symmetry_space_group_name_H-M   'P 1'
_cell_length_a   7.59268740
_cell_length_b   7.59268800
_cell_length_c   30.00000000
_cell_angle_alpha   90.00000000
_cell_angle_beta   90.00000000
_cell_angle_gamma   59.99999739
_symmetry_Int_Tables_number   1
_chemical_formula_structural   Sn4Mo7(Se4O7)2
_chemical_formula_sum   'Sn4 Mo7 Se8 O14'
_cell_volume   1497.76248709
_cell_formula_units_Z   1
loop_
 _symmetry_equiv_pos_site_id
 _symmetry_equiv_pos_as_xyz
  1  'x, y, z'
loop_
 _atom_site_type_symbol
 _atom_site_label
 _atom_site_symmetry_multiplicity
 _atom_site_fract_x
 _atom_site_fract_y
 _atom_site_fract_z
 _atom_site_occupancy
  Sn  Sn0  1  0.00000000  0.00000000  0.60130383  1
  Sn  Sn1  1  0.00019018  0.49998151  0.60165065  1
  Sn  Sn2  1  0.49982831  0.00019018  0.60165065  1
  Sn  Sn3  1  0.49998151  0.49982831  0.60165065  1
  Mo  Mo4  1  0.85726268  0.42862569  0.40634169  1
  Mo  Mo5  1  0.71411163  0.85726268  0.40634169  1
  Mo  Mo6  1  0.42862569  0.71411163  0.40634169  1
  Mo  Mo7  1  0.28562747  0.14284677  0.40653866  1
  Mo  Mo8  1  0.14284677  0.57152576  0.40653866  1
  Mo  Mo9  1  0.00000000  0.00000000  0.40655918  1
  Mo  Mo10  1  0.57152576  0.28562747  0.40653866  1
  Se  Se11  1  0.83353574  0.33270171  0.65543880  1
  Se  Se12  1  0.33333300  0.33333300  0.65553305  1
  Se  Se13  1  0.33270171  0.83376155  0.65543880  1
  Se  Se14  1  0.66666700  0.66666700  0.54825014  1
  Se  Se15  1  0.66624961  0.16635837  0.54773908  1
  Se  Se16  1  0.16739301  0.66624961  0.54773908  1
  Se  Se17  1  0.16635837  0.16739301  0.54773908  1
  Se  Se18  1  0.83376155  0.83353574  0.65543880  1
  O  O19  1  0.80980197  0.23851423  0.44731008  1
  O  O20  1  0.66666700  0.66666700  0.44691795  1
  O  O21  1  0.52357723  0.09491513  0.44731646  1
  O  O22  1  0.38150764  0.52357723  0.44731646  1
  O  O23  1  0.23851423  0.95168380  0.44731008  1
  O  O24  1  0.09553721  0.38094548  0.36571113  1
  O  O25  1  0.52351731  0.09553721  0.36571113  1
  O  O26  1  0.80966361  0.23781444  0.36572408  1
  O  O27  1  0.66666700  0.66666700  0.36549698  1
  O  O28  1  0.38094548  0.52351731  0.36571113  1
  O  O29  1  0.23781444  0.95252195  0.36572408  1
  O  O30  1  0.95168380  0.80980197  0.44731008  1
  O  O31  1  0.95252195  0.80966361  0.36572408  1
  O  O32  1  0.09491513  0.38150764  0.44731646  1
