# generated using pymatgen
data_Zr3Pb4(Se3O4)2
_symmetry_space_group_name_H-M   'P 1'
_cell_length_a   6.67654921
_cell_length_b   6.67654900
_cell_length_c   30.00000000
_cell_angle_alpha   90.00000000
_cell_angle_beta   90.00000000
_cell_angle_gamma   59.99999610
_symmetry_Int_Tables_number   1
_chemical_formula_structural   Zr3Pb4(Se3O4)2
_chemical_formula_sum   'Zr3 Pb4 Se6 O8'
_cell_volume   1158.12640762
_cell_formula_units_Z   1
loop_
 _symmetry_equiv_pos_site_id
 _symmetry_equiv_pos_as_xyz
  1  'x, y, z'
loop_
 _atom_site_type_symbol
 _atom_site_label
 _atom_site_symmetry_multiplicity
 _atom_site_fract_x
 _atom_site_fract_y
 _atom_site_fract_z
 _atom_site_occupancy
  Zr  Zr0  1  0.66666700  0.66666700  0.40074961  1
  Zr  Zr1  1  0.33333300  0.33333300  0.40064898  1
  Zr  Zr2  1  0.00000000  0.00000000  0.40053099  1
  Pb  Pb3  1  0.00000000  0.00000000  0.58585300  1
  Pb  Pb4  1  0.99975383  0.49995509  0.58542470  1
  Pb  Pb5  1  0.50029108  0.99975383  0.58542470  1
  Pb  Pb6  1  0.49995509  0.50029108  0.58542470  1
  Se  Se7  1  0.33321055  0.66694775  0.45212025  1
  Se  Se8  1  0.99998625  0.66654535  0.34861199  1
  Se  Se9  1  0.66654535  0.33346840  0.34861199  1
  Se  Se10  1  0.33346840  0.99998625  0.34861199  1
  Se  Se11  1  0.99984170  0.33321055  0.45212025  1
  Se  Se12  1  0.66694775  0.99984170  0.45212025  1
  O  O13  1  0.33333300  0.33333300  0.62202672  1
  O  O14  1  0.33395095  0.83251322  0.62225261  1
  O  O15  1  0.66666700  0.66666700  0.54798338  1
  O  O16  1  0.66729537  0.16763192  0.54830656  1
  O  O17  1  0.16507371  0.66729537  0.54830656  1
  O  O18  1  0.16763192  0.16507371  0.54830656  1
  O  O19  1  0.83353483  0.33395095  0.62225261  1
  O  O20  1  0.83251322  0.83353483  0.62225261  1
