# generated using pymatgen
data_Hf3Sn4(Se3O4)2
_symmetry_space_group_name_H-M   'P 1'
_cell_length_a   6.49011212
_cell_length_b   6.49011212
_cell_length_c   30.00000000
_cell_angle_alpha   90.00000000
_cell_angle_beta   90.00000000
_cell_angle_gamma   59.99999881
_symmetry_Int_Tables_number   1
_chemical_formula_structural   Hf3Sn4(Se3O4)2
_chemical_formula_sum   'Hf3 Sn4 Se6 O8'
_cell_volume   1094.35009462
_cell_formula_units_Z   1
loop_
 _symmetry_equiv_pos_site_id
 _symmetry_equiv_pos_as_xyz
  1  'x, y, z'
loop_
 _atom_site_type_symbol
 _atom_site_label
 _atom_site_symmetry_multiplicity
 _atom_site_fract_x
 _atom_site_fract_y
 _atom_site_fract_z
 _atom_site_occupancy
  Hf  Hf0  1  0.00000000  0.00000000  0.60229781  1
  Hf  Hf1  1  0.33333300  0.33333300  0.60321295  1
  Hf  Hf2  1  0.66666700  0.66666700  0.60239309  1
  Sn  Sn3  1  0.50009569  0.49976743  0.41442260  1
  Sn  Sn4  1  0.49976743  0.00013688  0.41442260  1
  Sn  Sn5  1  0.00000000  0.00000000  0.41428995  1
  Sn  Sn6  1  0.00013688  0.50009569  0.41442260  1
  Se  Se7  1  0.66783713  0.99894730  0.65520769  1
  Se  Se8  1  0.99894730  0.33321557  0.65520769  1
  Se  Se9  1  0.00133805  0.66525366  0.55030832  1
  Se  Se10  1  0.66525366  0.33340829  0.55030832  1
  Se  Se11  1  0.33340829  0.00133805  0.55030832  1
  Se  Se12  1  0.33321557  0.66783713  0.65520769  1
  O  O13  1  0.83252477  0.83433943  0.44787904  1
  O  O14  1  0.16710390  0.16645479  0.38092590  1
  O  O15  1  0.16645479  0.66644231  0.38092590  1
  O  O16  1  0.66644231  0.16710390  0.38092590  1
  O  O17  1  0.66666700  0.66666700  0.38100044  1
  O  O18  1  0.33313480  0.83252477  0.44787904  1
  O  O19  1  0.33333300  0.33333300  0.44809507  1
  O  O20  1  0.83433943  0.33313480  0.44787904  1
