# generated using pymatgen
data_Cr4Sn3(Te4Se3)2
_symmetry_space_group_name_H-M   'P 1'
_cell_length_a   6.81601959
_cell_length_b   6.81601900
_cell_length_c   30.00000000
_cell_angle_alpha   90.00000000
_cell_angle_beta   90.00000000
_cell_angle_gamma   59.99999801
_symmetry_Int_Tables_number   1
_chemical_formula_structural   Cr4Sn3(Te4Se3)2
_chemical_formula_sum   'Cr4 Sn3 Te8 Se6'
_cell_volume   1207.01731470
_cell_formula_units_Z   1
loop_
 _symmetry_equiv_pos_site_id
 _symmetry_equiv_pos_as_xyz
  1  'x, y, z'
loop_
 _atom_site_type_symbol
 _atom_site_label
 _atom_site_symmetry_multiplicity
 _atom_site_fract_x
 _atom_site_fract_y
 _atom_site_fract_z
 _atom_site_occupancy
  Cr  Cr0  1  0.99902558  0.50224421  0.38434702  1
  Cr  Cr1  1  0.50224421  0.49873021  0.38434702  1
  Cr  Cr2  1  0.49873021  0.99902558  0.38434702  1
  Cr  Cr3  1  0.00000000  0.00000000  0.38430133  1
  Sn  Sn4  1  0.00000000  0.00000000  0.61180677  1
  Sn  Sn5  1  0.66666700  0.66666700  0.61293016  1
  Sn  Sn6  1  0.33333300  0.33333300  0.61181841  1
  Te  Te7  1  0.66646853  0.16410952  0.44166126  1
  Te  Te8  1  0.16558230  0.16789760  0.32696253  1
  Te  Te9  1  0.16789760  0.66652110  0.32696253  1
  Te  Te10  1  0.66652110  0.16558230  0.32696253  1
  Te  Te11  1  0.66666700  0.66666700  0.32678188  1
  Te  Te12  1  0.16410952  0.16942296  0.44166126  1
  Te  Te13  1  0.16942296  0.66646853  0.44166126  1
  Te  Te14  1  0.66666700  0.66666700  0.44218565  1
  Se  Se15  1  0.99647201  0.66666320  0.55962901  1
  Se  Se16  1  0.33070534  0.66690840  0.66443145  1
  Se  Se17  1  0.66690840  0.00238626  0.66443145  1
  Se  Se18  1  0.00238626  0.33070534  0.66443145  1
  Se  Se19  1  0.33686478  0.99647201  0.55962901  1
  Se  Se20  1  0.66666320  0.33686478  0.55962901  1
