# generated using pymatgen
data_TiWO4
_symmetry_space_group_name_H-M   'P 1'
_cell_length_a   5.03873100
_cell_length_b   5.03873121
_cell_length_c   30.00000000
_cell_angle_alpha   90.00000000
_cell_angle_beta   90.00000000
_cell_angle_gamma   59.99999480
_symmetry_Int_Tables_number   1
_chemical_formula_structural   TiWO4
_chemical_formula_sum   'Ti3 W3 O12'
_cell_volume   659.62062792
_cell_formula_units_Z   3
loop_
 _symmetry_equiv_pos_site_id
 _symmetry_equiv_pos_as_xyz
  1  'x, y, z'
loop_
 _atom_site_type_symbol
 _atom_site_label
 _atom_site_symmetry_multiplicity
 _atom_site_fract_x
 _atom_site_fract_y
 _atom_site_fract_z
 _atom_site_occupancy
  Ti  Ti0  1  0.00000000  0.00000000  0.57569568  1
  Ti  Ti1  1  0.33333300  0.33333300  0.57569568  1
  Ti  Ti2  1  0.66666700  0.66666700  0.57569568  1
  W  W3  1  0.66666700  0.66666700  0.41542546  1
  W  W4  1  0.33333300  0.33333300  0.41542546  1
  W  W5  1  0.00000000  0.00000000  0.41542546  1
  O  O6  1  0.33333300  0.00000000  0.45596026  1
  O  O7  1  0.00000000  0.66666700  0.37479001  1
  O  O8  1  0.66666700  0.33333300  0.37479001  1
  O  O9  1  0.33333300  0.00000000  0.37479001  1
  O  O10  1  0.00000000  0.66666700  0.60962815  1
  O  O11  1  0.66666700  0.33333300  0.60962815  1
  O  O12  1  0.33333300  0.00000000  0.60962815  1
  O  O13  1  0.66666700  0.00000000  0.54186943  1
  O  O14  1  0.33333300  0.66666700  0.54186943  1
  O  O15  1  0.00000000  0.33333300  0.54186943  1
  O  O16  1  0.66666700  0.33333300  0.45596026  1
  O  O17  1  0.00000000  0.66666700  0.45596026  1
