# generated using pymatgen
data_Zr3Ti4(Se3S4)2
_symmetry_space_group_name_H-M   'P 1'
_cell_length_a   6.70095676
_cell_length_b   6.70095700
_cell_length_c   30.00000000
_cell_angle_alpha   90.00000000
_cell_angle_beta   90.00000000
_cell_angle_gamma   60.00000374
_symmetry_Int_Tables_number   1
_chemical_formula_structural   Zr3Ti4(Se3S4)2
_chemical_formula_sum   'Zr3 Ti4 Se6 S8'
_cell_volume   1166.60960884
_cell_formula_units_Z   1
loop_
 _symmetry_equiv_pos_site_id
 _symmetry_equiv_pos_as_xyz
  1  'x, y, z'
loop_
 _atom_site_type_symbol
 _atom_site_label
 _atom_site_symmetry_multiplicity
 _atom_site_fract_x
 _atom_site_fract_y
 _atom_site_fract_z
 _atom_site_occupancy
  Zr  Zr0  1  0.66666700  0.66666700  0.39385952  1
  Zr  Zr1  1  0.33333300  0.33333300  0.39452465  1
  Zr  Zr2  1  0.00000000  0.00000000  0.39449855  1
  Ti  Ti3  1  0.00000000  0.00000000  0.60155069  1
  Ti  Ti4  1  0.99966624  0.50911780  0.60173158  1
  Ti  Ti5  1  0.49121597  0.99966624  0.60173158  1
  Ti  Ti6  1  0.50911780  0.49121597  0.60173158  1
  Se  Se7  1  0.33426712  0.66683446  0.44576836  1
  Se  Se8  1  0.00072118  0.66658224  0.34256606  1
  Se  Se9  1  0.66658224  0.33269658  0.34256606  1
  Se  Se10  1  0.33269658  0.00072118  0.34256606  1
  Se  Se11  1  0.99889842  0.33426712  0.44576836  1
  Se  Se12  1  0.66683446  0.99889842  0.44576836  1
  S  S13  1  0.33333300  0.33333300  0.64983866  1
  S  S14  1  0.33296701  0.83744781  0.65017181  1
  S  S15  1  0.66666700  0.66666700  0.55340916  1
  S  S16  1  0.66713504  0.17104230  0.55352344  1
  S  S17  1  0.16182365  0.66713504  0.55352344  1
  S  S18  1  0.17104230  0.16182365  0.55352344  1
  S  S19  1  0.82958418  0.33296701  0.65017181  1
  S  S20  1  0.83744781  0.82958418  0.65017181  1
