# generated using pymatgen
data_NiPdS4
_symmetry_space_group_name_H-M   'P 1'
_cell_length_a   5.98161205
_cell_length_b   5.98161205
_cell_length_c   30.00000000
_cell_angle_alpha   90.00000000
_cell_angle_beta   90.00000000
_cell_angle_gamma   59.99999950
_symmetry_Int_Tables_number   1
_chemical_formula_structural   NiPdS4
_chemical_formula_sum   'Ni3 Pd3 S12'
_cell_volume   929.58341903
_cell_formula_units_Z   3
loop_
 _symmetry_equiv_pos_site_id
 _symmetry_equiv_pos_as_xyz
  1  'x, y, z'
loop_
 _atom_site_type_symbol
 _atom_site_label
 _atom_site_symmetry_multiplicity
 _atom_site_fract_x
 _atom_site_fract_y
 _atom_site_fract_z
 _atom_site_occupancy
  Ni  Ni0  1  0.00000000  0.00000000  0.57380641  1
  Ni  Ni1  1  0.33333300  0.33333300  0.57380641  1
  Ni  Ni2  1  0.66666700  0.66666700  0.57380641  1
  Pd  Pd3  1  0.66666700  0.66666700  0.42392272  1
  Pd  Pd4  1  0.33333300  0.33333300  0.42392272  1
  Pd  Pd5  1  0.00000000  0.00000000  0.42392272  1
  S  S6  1  0.33333300  0.66666700  0.46653652  1
  S  S7  1  0.00000000  0.66666700  0.37991871  1
  S  S8  1  0.66666700  0.33333300  0.37991871  1
  S  S9  1  0.33333300  0.00000000  0.37991871  1
  S  S10  1  0.00000000  0.33333300  0.61165389  1
  S  S11  1  0.66666700  0.00000000  0.61165389  1
  S  S12  1  0.33333300  0.66666700  0.61165389  1
  S  S13  1  0.00000000  0.66666700  0.53721376  1
  S  S14  1  0.66666700  0.33333300  0.53721376  1
  S  S15  1  0.33333300  0.00000000  0.53721376  1
  S  S16  1  0.66666700  0.00000000  0.46653652  1
  S  S17  1  0.00000000  0.33333300  0.46653652  1
