# generated using pymatgen
data_Cr3Ge4(Te3O4)2
_symmetry_space_group_name_H-M   'P 1'
_cell_length_a   5.90531851
_cell_length_b   5.90531851
_cell_length_c   30.00000000
_cell_angle_alpha   90.00000000
_cell_angle_beta   90.00000000
_cell_angle_gamma   59.99999423
_symmetry_Int_Tables_number   1
_chemical_formula_structural   Cr3Ge4(Te3O4)2
_chemical_formula_sum   'Cr3 Ge4 Te6 O8'
_cell_volume   906.02152445
_cell_formula_units_Z   1
loop_
 _symmetry_equiv_pos_site_id
 _symmetry_equiv_pos_as_xyz
  1  'x, y, z'
loop_
 _atom_site_type_symbol
 _atom_site_label
 _atom_site_symmetry_multiplicity
 _atom_site_fract_x
 _atom_site_fract_y
 _atom_site_fract_z
 _atom_site_occupancy
  Cr  Cr0  1  0.66666668  0.66666681  0.38710253  1
  Cr  Cr1  1  0.33333319  0.33333331  0.38734095  1
  Cr  Cr2  1  0.00000016  0.99999985  0.38735763  1
  Ge  Ge3  1  0.99999999  0.00000000  0.58935997  1
  Ge  Ge4  1  0.99993489  0.50013059  0.58923955  1
  Ge  Ge5  1  0.49993450  0.99993489  0.58923954  1
  Ge  Ge6  1  0.50013060  0.49993450  0.58923955  1
  Te  Te7  1  0.33440955  0.99896690  0.44460263  1
  Te  Te8  1  0.00030941  0.66670274  0.32982617  1
  Te  Te9  1  0.66670265  0.33298802  0.32982622  1
  Te  Te10  1  0.33298793  0.00030926  0.32982617  1
  Te  Te11  1  0.99896706  0.66662348  0.44460263  1
  Te  Te12  1  0.66662339  0.33440964  0.44460258  1
  O  O13  1  0.33333325  0.33333329  0.62147663  1
  O  O14  1  0.33357236  0.83352914  0.62152427  1
  O  O15  1  0.66666676  0.66666668  0.55657836  1
  O  O16  1  0.66681900  0.16585946  0.55675104  1
  O  O17  1  0.16732170  0.66681904  0.55675104  1
  O  O18  1  0.16585945  0.16732173  0.55675104  1
  O  O19  1  0.83289835  0.33357233  0.62152427  1
  O  O20  1  0.83352913  0.83289834  0.62152426  1
