# generated using pymatgen
data_Mo3W4(Se3O4)2
_symmetry_space_group_name_H-M   'P 1'
_cell_length_a   5.70724800
_cell_length_b   5.70724821
_cell_length_c   30.00000000
_cell_angle_alpha   90.00000000
_cell_angle_beta   90.00000000
_cell_angle_gamma   60.00000124
_symmetry_Int_Tables_number   1
_chemical_formula_structural   Mo3W4(Se3O4)2
_chemical_formula_sum   'Mo3 W4 Se6 O8'
_cell_volume   846.26308573
_cell_formula_units_Z   1
loop_
 _symmetry_equiv_pos_site_id
 _symmetry_equiv_pos_as_xyz
  1  'x, y, z'
loop_
 _atom_site_type_symbol
 _atom_site_label
 _atom_site_symmetry_multiplicity
 _atom_site_fract_x
 _atom_site_fract_y
 _atom_site_fract_z
 _atom_site_occupancy
  Mo  Mo0  1  0.00000000  0.00000000  0.60495515  1
  Mo  Mo1  1  0.33333300  0.33333300  0.60496497  1
  Mo  Mo2  1  0.66666700  0.66666700  0.60528931  1
  W  W3  1  0.49982114  0.50019347  0.40707270  1
  W  W4  1  0.50019347  0.99998539  0.40707270  1
  W  W5  1  0.00000000  0.00000000  0.40705625  1
  W  W6  1  0.99998539  0.49982114  0.40707270  1
  Se  Se7  1  0.33260266  0.66669401  0.66089678  1
  Se  Se8  1  0.66669401  0.00070333  0.66089678  1
  Se  Se9  1  0.66663497  0.99854024  0.54936563  1
  Se  Se10  1  0.33482478  0.66663497  0.54936563  1
  Se  Se11  1  0.99854024  0.33482478  0.54936563  1
  Se  Se12  1  0.00070333  0.33260266  0.66089678  1
  O  O13  1  0.66663951  0.16750288  0.44813027  1
  O  O14  1  0.16678953  0.16651138  0.36592469  1
  O  O15  1  0.16651138  0.66670008  0.36592469  1
  O  O16  1  0.66670008  0.16678953  0.36592469  1
  O  O17  1  0.66666700  0.66666700  0.36596837  1
  O  O18  1  0.16750288  0.16585861  0.44813027  1
  O  O19  1  0.16585861  0.66663951  0.44813027  1
  O  O20  1  0.66666700  0.66666700  0.44826073  1
