# generated using pymatgen
data_Te6Mo7S8
_symmetry_space_group_name_H-M   'P 1'
_cell_length_a   6.25619852
_cell_length_b   6.25619800
_cell_length_c   30.00000000
_cell_angle_alpha   90.00000000
_cell_angle_beta   90.00000000
_cell_angle_gamma   60.00000275
_symmetry_Int_Tables_number   1
_chemical_formula_structural   Te6Mo7S8
_chemical_formula_sum   'Te6 Mo7 S8'
_cell_volume   1016.88749044
_cell_formula_units_Z   1
loop_
 _symmetry_equiv_pos_site_id
 _symmetry_equiv_pos_as_xyz
  1  'x, y, z'
loop_
 _atom_site_type_symbol
 _atom_site_label
 _atom_site_symmetry_multiplicity
 _atom_site_fract_x
 _atom_site_fract_y
 _atom_site_fract_z
 _atom_site_occupancy
  Te  Te0  1  0.99795341  0.66654180  0.44077810  1
  Te  Te1  1  0.33550479  0.99795341  0.44077810  1
  Te  Te2  1  0.00076800  0.66669490  0.32225538  1
  Te  Te3  1  0.66669490  0.33253710  0.32225538  1
  Te  Te4  1  0.33253710  0.00076800  0.32225538  1
  Te  Te5  1  0.66654180  0.33550479  0.44077810  1
  Mo  Mo6  1  0.66666700  0.66666700  0.38120808  1
  Mo  Mo7  1  0.33333300  0.33333300  0.38173022  1
  Mo  Mo8  1  0.00000000  0.00000000  0.38176004  1
  Mo  Mo9  1  0.00000000  0.00000000  0.61043650  1
  Mo  Mo10  1  0.50083338  0.49929299  0.61039443  1
  Mo  Mo11  1  0.49929299  0.99987363  0.61039443  1
  Mo  Mo12  1  0.99987363  0.50083338  0.61039443  1
  S  S13  1  0.16604687  0.16738567  0.66311442  1
  S  S14  1  0.66666700  0.66666700  0.66308683  1
  S  S15  1  0.66666700  0.66666700  0.55752431  1
  S  S16  1  0.66660016  0.16514961  0.55784001  1
  S  S17  1  0.16825123  0.66660016  0.55784001  1
  S  S18  1  0.16514961  0.16825123  0.55784001  1
  S  S19  1  0.16738567  0.66656846  0.66311442  1
  S  S20  1  0.66656846  0.16604687  0.66311442  1
