# generated using pymatgen
data_HfZr(SO)2
_symmetry_space_group_name_H-M   'P 1'
_cell_length_a   3.41127045
_cell_length_b   3.41127100
_cell_length_c   30.00000000
_cell_angle_alpha   90.00000000
_cell_angle_beta   90.00000000
_cell_angle_gamma   60.00000437
_symmetry_Int_Tables_number   1
_chemical_formula_structural   HfZr(SO)2
_chemical_formula_sum   'Hf1 Zr1 S2 O2'
_cell_volume   302.33211354
_cell_formula_units_Z   1
loop_
 _symmetry_equiv_pos_site_id
 _symmetry_equiv_pos_as_xyz
  1  'x, y, z'
loop_
 _atom_site_type_symbol
 _atom_site_label
 _atom_site_symmetry_multiplicity
 _atom_site_fract_x
 _atom_site_fract_y
 _atom_site_fract_z
 _atom_site_occupancy
  Hf  Hf0  1  0.00000000  0.00000000  0.58664353  1
  Zr  Zr1  1  0.00000000  0.00000000  0.39346832  1
  S  S2  1  0.33333300  0.33333300  0.33954647  1
  S  S3  1  0.33333300  0.33333300  0.44722934  1
  O  O4  1  0.33333300  0.33333300  0.55731578  1
  O  O5  1  0.66666700  0.66666700  0.61615957  1
