# generated using pymatgen
data_Ge4Pt3(S3O4)2
_symmetry_space_group_name_H-M   'P 1'
_cell_length_a   5.99412500
_cell_length_b   5.99412566
_cell_length_c   30.00000000
_cell_angle_alpha   90.00000000
_cell_angle_beta   90.00000000
_cell_angle_gamma   59.99999814
_symmetry_Int_Tables_number   1
_chemical_formula_structural   Ge4Pt3(S3O4)2
_chemical_formula_sum   'Ge4 Pt3 S6 O8'
_cell_volume   933.47677479
_cell_formula_units_Z   1
loop_
 _symmetry_equiv_pos_site_id
 _symmetry_equiv_pos_as_xyz
  1  'x, y, z'
loop_
 _atom_site_type_symbol
 _atom_site_label
 _atom_site_symmetry_multiplicity
 _atom_site_fract_x
 _atom_site_fract_y
 _atom_site_fract_z
 _atom_site_occupancy
  Ge  Ge0  1  0.00000000  0.00000000  0.58498675  1
  Ge  Ge1  1  0.99992426  0.50022012  0.58482700  1
  Ge  Ge2  1  0.49985562  0.99992426  0.58482700  1
  Ge  Ge3  1  0.50022012  0.49985562  0.58482700  1
  Pt  Pt4  1  0.66666700  0.66666700  0.40847363  1
  Pt  Pt5  1  0.33333300  0.33333300  0.40910909  1
  Pt  Pt6  1  0.00000000  0.00000000  0.40916371  1
  S  S7  1  0.33568631  0.99783950  0.45166138  1
  S  S8  1  0.66680583  0.00153194  0.36584978  1
  S  S9  1  0.33166223  0.66680583  0.36584978  1
  S  S10  1  0.00153194  0.33166223  0.36584978  1
  S  S11  1  0.99783950  0.66647419  0.45166138  1
  S  S12  1  0.66647419  0.33568631  0.45166138  1
  O  O13  1  0.33333300  0.33333300  0.61656686  1
  O  O14  1  0.33361933  0.83386814  0.61663082  1
  O  O15  1  0.66666700  0.66666700  0.55287801  1
  O  O16  1  0.66685807  0.16521632  0.55309600  1
  O  O17  1  0.16792662  0.66685807  0.55309600  1
  O  O18  1  0.16521632  0.16792662  0.55309600  1
  O  O19  1  0.83251153  0.33361933  0.61663082  1
  O  O20  1  0.83386814  0.83251153  0.61663082  1
