# generated using pymatgen
data_Zr3Pt4(Se3O4)2
_symmetry_space_group_name_H-M   'P 1'
_cell_length_a   6.34861600
_cell_length_b   6.34861536
_cell_length_c   30.00000000
_cell_angle_alpha   90.00000000
_cell_angle_beta   90.00000000
_cell_angle_gamma   59.99999668
_symmetry_Int_Tables_number   1
_chemical_formula_structural   Zr3Pt4(Se3O4)2
_chemical_formula_sum   'Zr3 Pt4 Se6 O8'
_cell_volume   1047.15253147
_cell_formula_units_Z   1
loop_
 _symmetry_equiv_pos_site_id
 _symmetry_equiv_pos_as_xyz
  1  'x, y, z'
loop_
 _atom_site_type_symbol
 _atom_site_label
 _atom_site_symmetry_multiplicity
 _atom_site_fract_x
 _atom_site_fract_y
 _atom_site_fract_z
 _atom_site_occupancy
  Zr  Zr0  1  0.66666700  0.66666700  0.39081665  1
  Zr  Zr1  1  0.33333300  0.33333300  0.40103442  1
  Zr  Zr2  1  0.00000000  0.00000000  0.40204376  1
  Pt  Pt3  1  0.00000000  0.00000000  0.58071028  1
  Pt  Pt4  1  0.99990780  0.49997982  0.58071441  1
  Pt  Pt5  1  0.50011238  0.99990780  0.58071441  1
  Pt  Pt6  1  0.49997982  0.50011238  0.58071441  1
  Se  Se7  1  0.98981279  0.34431715  0.45424415  1
  Se  Se8  1  0.66743783  0.01016336  0.34134286  1
  Se  Se9  1  0.32239881  0.66743783  0.34134286  1
  Se  Se10  1  0.01016336  0.32239881  0.34134286  1
  Se  Se11  1  0.66587006  0.98981279  0.45424415  1
  Se  Se12  1  0.34431715  0.66587006  0.45424415  1
  O  O13  1  0.33333300  0.33333300  0.61178796  1
  O  O14  1  0.33321647  0.83382434  0.61177102  1
  O  O15  1  0.66666700  0.66666700  0.54966365  1
  O  O16  1  0.66662397  0.16760086  0.54979965  1
  O  O17  1  0.16577617  0.66662397  0.54979965  1
  O  O18  1  0.16760086  0.16577617  0.54979965  1
  O  O19  1  0.83295818  0.33321647  0.61177102  1
  O  O20  1  0.83382434  0.83295818  0.61177102  1
