# generated using pymatgen
data_Pt4W7(Se4O7)2
_symmetry_space_group_name_H-M   'P 1'
_cell_length_a   7.49254489
_cell_length_b   7.49254541
_cell_length_c   30.00000000
_cell_angle_alpha   90.00000000
_cell_angle_beta   90.00000000
_cell_angle_gamma   60.00000057
_symmetry_Int_Tables_number   1
_chemical_formula_structural   Pt4W7(Se4O7)2
_chemical_formula_sum   'Pt4 W7 Se8 O14'
_cell_volume   1458.51407963
_cell_formula_units_Z   1
loop_
 _symmetry_equiv_pos_site_id
 _symmetry_equiv_pos_as_xyz
  1  'x, y, z'
loop_
 _atom_site_type_symbol
 _atom_site_label
 _atom_site_symmetry_multiplicity
 _atom_site_fract_x
 _atom_site_fract_y
 _atom_site_fract_z
 _atom_site_occupancy
  Pt  Pt0  1  0.00000000  0.00000000  0.59013768  1
  Pt  Pt1  1  0.00002412  0.49957308  0.59043795  1
  Pt  Pt2  1  0.50040280  0.00002412  0.59043795  1
  Pt  Pt3  1  0.49957308  0.50040280  0.59043795  1
  W  W4  1  0.71439825  0.85694231  0.40706291  1
  W  W5  1  0.85694231  0.42865944  0.40706291  1
  W  W6  1  0.57141819  0.28556930  0.40711107  1
  W  W7  1  0.14301251  0.57141819  0.40711107  1
  W  W8  1  0.28556930  0.14301251  0.40711107  1
  W  W9  1  0.00000000  0.00000000  0.40669328  1
  W  W10  1  0.42865944  0.71439825  0.40706291  1
  Se  Se11  1  0.83310222  0.33283153  0.63401716  1
  Se  Se12  1  0.33333300  0.33333300  0.63412947  1
  Se  Se13  1  0.33283153  0.83406525  0.63401716  1
  Se  Se14  1  0.66666700  0.66666700  0.54691044  1
  Se  Se15  1  0.66543260  0.16838832  0.54710910  1
  Se  Se16  1  0.16618008  0.66543260  0.54710910  1
  Se  Se17  1  0.16838832  0.16618008  0.54710910  1
  Se  Se18  1  0.83406525  0.83310222  0.63401716  1
  O  O19  1  0.47590425  0.90514413  0.44850017  1
  O  O20  1  0.61895161  0.47590425  0.44850017  1
  O  O21  1  0.19032505  0.76309160  0.44816453  1
  O  O22  1  0.33333300  0.33333300  0.44863614  1
  O  O23  1  0.04658334  0.19032505  0.44816453  1
  O  O24  1  0.76137997  0.04760162  0.36555649  1
  O  O25  1  0.19101841  0.76137997  0.36555649  1
  O  O26  1  0.47620533  0.90488027  0.36574522  1
  O  O27  1  0.61891440  0.47620533  0.36574522  1
  O  O28  1  0.33333300  0.33333300  0.36579618  1
  O  O29  1  0.04760162  0.19101841  0.36555649  1
  O  O30  1  0.90514413  0.61895161  0.44850017  1
  O  O31  1  0.90488027  0.61891440  0.36574522  1
  O  O32  1  0.76309160  0.04658334  0.44816453  1
