# generated using pymatgen
data_Zr4Sn3(S3O4)2
_symmetry_space_group_name_H-M   'P 1'
_cell_length_a   6.46537252
_cell_length_b   6.46537200
_cell_length_c   30.00000000
_cell_angle_alpha   90.00000000
_cell_angle_beta   90.00000000
_cell_angle_gamma   60.00000267
_symmetry_Int_Tables_number   1
_chemical_formula_structural   Zr4Sn3(S3O4)2
_chemical_formula_sum   'Zr4 Sn3 S6 O8'
_cell_volume   1086.02286597
_cell_formula_units_Z   1
loop_
 _symmetry_equiv_pos_site_id
 _symmetry_equiv_pos_as_xyz
  1  'x, y, z'
loop_
 _atom_site_type_symbol
 _atom_site_label
 _atom_site_symmetry_multiplicity
 _atom_site_fract_x
 _atom_site_fract_y
 _atom_site_fract_z
 _atom_site_occupancy
  Zr  Zr0  1  0.00003882  0.49987532  0.41539774  1
  Zr  Zr1  1  0.49987532  0.50008587  0.41539774  1
  Zr  Zr2  1  0.50008587  0.00003882  0.41539774  1
  Zr  Zr3  1  0.00000000  0.00000000  0.41394169  1
  Sn  Sn4  1  0.00000000  0.00000000  0.60015534  1
  Sn  Sn5  1  0.66666700  0.66666700  0.60017573  1
  Sn  Sn6  1  0.33333300  0.33333300  0.60037616  1
  S  S7  1  0.66530669  0.00117752  0.55158808  1
  S  S8  1  0.33318683  0.99933796  0.64902920  1
  S  S9  1  0.66747521  0.33318683  0.64902920  1
  S  S10  1  0.99933796  0.66747521  0.64902920  1
  S  S11  1  0.00117752  0.33351579  0.55158808  1
  S  S12  1  0.33351579  0.66530669  0.55158808  1
  O  O13  1  0.83497306  0.83332765  0.44761839  1
  O  O14  1  0.16748673  0.16745243  0.38207746  1
  O  O15  1  0.16745243  0.66506183  0.38207746  1
  O  O16  1  0.66506183  0.16748673  0.38207746  1
  O  O17  1  0.66666700  0.66666700  0.38252881  1
  O  O18  1  0.33169829  0.83497306  0.44761839  1
  O  O19  1  0.33333300  0.33333300  0.44822462  1
  O  O20  1  0.83332765  0.33169829  0.44761839  1
