# generated using pymatgen
data_Zr3(Mo2O7)2
_symmetry_space_group_name_H-M   'P 1'
_cell_length_a   5.64624336
_cell_length_b   5.64624336
_cell_length_c   30.00000000
_cell_angle_alpha   90.00000000
_cell_angle_beta   90.00000000
_cell_angle_gamma   60.00000751
_symmetry_Int_Tables_number   1
_chemical_formula_structural   Zr3(Mo2O7)2
_chemical_formula_sum   'Zr3 Mo4 O14'
_cell_volume   828.26842346
_cell_formula_units_Z   1
loop_
 _symmetry_equiv_pos_site_id
 _symmetry_equiv_pos_as_xyz
  1  'x, y, z'
loop_
 _atom_site_type_symbol
 _atom_site_label
 _atom_site_symmetry_multiplicity
 _atom_site_fract_x
 _atom_site_fract_y
 _atom_site_fract_z
 _atom_site_occupancy
  Zr  Zr0  1  0.00000000  0.00000000  0.57609245  1
  Zr  Zr1  1  0.33333300  0.33333300  0.57599732  1
  Zr  Zr2  1  0.66666700  0.66666700  0.57377566  1
  Mo  Mo3  1  0.50028354  0.49968943  0.41221037  1
  Mo  Mo4  1  0.49968943  0.00002703  0.41221037  1
  Mo  Mo5  1  0.00000000  0.00000000  0.41212181  1
  Mo  Mo6  1  0.00002703  0.50028354  0.41221037  1
  O  O7  1  0.66660987  0.99906117  0.60774854  1
  O  O8  1  0.99906117  0.33432896  0.60774854  1
  O  O9  1  0.00082803  0.66673349  0.54311224  1
  O  O10  1  0.66666004  0.16554615  0.45324843  1
  O  O11  1  0.66673349  0.33243848  0.54311224  1
  O  O12  1  0.33243848  0.00082803  0.54311224  1
  O  O13  1  0.16644411  0.16698273  0.37093931  1
  O  O14  1  0.16698273  0.66657416  0.37093931  1
  O  O15  1  0.66657416  0.16644411  0.37093931  1
  O  O16  1  0.66666700  0.66666700  0.37103682  1
  O  O17  1  0.16554615  0.16779480  0.45324843  1
  O  O18  1  0.16779480  0.66666004  0.45324843  1
  O  O19  1  0.33432896  0.66660987  0.60774854  1
  O  O20  1  0.66666700  0.66666700  0.45349730  1
