# generated using pymatgen
data_Ti3Te6(WSe2)4
_symmetry_space_group_name_H-M   'P 1'
_cell_length_a   6.55534362
_cell_length_b   6.55534400
_cell_length_c   30.00000000
_cell_angle_alpha   90.00000000
_cell_angle_beta   90.00000000
_cell_angle_gamma   59.99999810
_symmetry_Int_Tables_number   1
_chemical_formula_structural   Ti3Te6(WSe2)4
_chemical_formula_sum   'Ti3 Te6 W4 Se8'
_cell_volume   1116.45912271
_cell_formula_units_Z   1
loop_
 _symmetry_equiv_pos_site_id
 _symmetry_equiv_pos_as_xyz
  1  'x, y, z'
loop_
 _atom_site_type_symbol
 _atom_site_label
 _atom_site_symmetry_multiplicity
 _atom_site_fract_x
 _atom_site_fract_y
 _atom_site_fract_z
 _atom_site_occupancy
  Ti  Ti0  1  0.00000000  0.00000000  0.61563401  1
  Ti  Ti1  1  0.33333300  0.33333300  0.61639538  1
  Ti  Ti2  1  0.66666700  0.66666700  0.62042463  1
  Te  Te3  1  0.33903593  0.99516249  0.55907402  1
  Te  Te4  1  0.66580158  0.33903593  0.55907402  1
  Te  Te5  1  0.99516249  0.66580158  0.55907402  1
  Te  Te6  1  0.32891066  0.00383509  0.67657897  1
  Te  Te7  1  0.66725425  0.32891066  0.67657897  1
  Te  Te8  1  0.00383509  0.66725425  0.67657897  1
  W  W9  1  0.50101574  0.49924599  0.38593181  1
  W  W10  1  0.49924599  0.99973827  0.38593181  1
  W  W11  1  0.99973827  0.50101574  0.38593181  1
  W  W12  1  0.00000000  0.00000000  0.38594046  1
  Se  Se13  1  0.16598748  0.16734666  0.32964145  1
  Se  Se14  1  0.16734666  0.66666686  0.32964145  1
  Se  Se15  1  0.66666686  0.16598748  0.32964145  1
  Se  Se16  1  0.66666700  0.66666700  0.32960017  1
  Se  Se17  1  0.16525481  0.16827837  0.44211205  1
  Se  Se18  1  0.16827837  0.66646782  0.44211205  1
  Se  Se19  1  0.66646782  0.16525481  0.44211205  1
  Se  Se20  1  0.66666700  0.66666700  0.44236344  1
