# generated using pymatgen
data_Hf3Ge4(Te3S4)2
_symmetry_space_group_name_H-M   'P 1'
_cell_length_a   6.82844626
_cell_length_b   6.82844600
_cell_length_c   30.00000000
_cell_angle_alpha   90.00000000
_cell_angle_beta   90.00000000
_cell_angle_gamma   60.00000124
_symmetry_Int_Tables_number   1
_chemical_formula_structural   Hf3Ge4(Te3S4)2
_chemical_formula_sum   'Hf3 Ge4 Te6 S8'
_cell_volume   1211.42258680
_cell_formula_units_Z   1
loop_
 _symmetry_equiv_pos_site_id
 _symmetry_equiv_pos_as_xyz
  1  'x, y, z'
loop_
 _atom_site_type_symbol
 _atom_site_label
 _atom_site_symmetry_multiplicity
 _atom_site_fract_x
 _atom_site_fract_y
 _atom_site_fract_z
 _atom_site_occupancy
  Hf  Hf0  1  0.66666700  0.66666700  0.37782618  1
  Hf  Hf1  1  0.33333300  0.33333300  0.38466084  1
  Hf  Hf2  1  0.00000000  0.00000000  0.38237657  1
  Ge  Ge3  1  0.00000000  0.00000000  0.60409487  1
  Ge  Ge4  1  0.99981153  0.50041124  0.60376698  1
  Ge  Ge5  1  0.49977723  0.99981153  0.60376698  1
  Ge  Ge6  1  0.50041124  0.49977723  0.60376698  1
  Te  Te7  1  0.33885891  0.99230272  0.44234239  1
  Te  Te8  1  0.00642317  0.66484246  0.32048249  1
  Te  Te9  1  0.66484246  0.32873438  0.32048249  1
  Te  Te10  1  0.32873438  0.00642317  0.32048249  1
  Te  Te11  1  0.99230272  0.66883836  0.44234239  1
  Te  Te12  1  0.66883836  0.33885891  0.44234239  1
  S  S13  1  0.33333300  0.33333300  0.65065573  1
  S  S14  1  0.33364810  0.83526597  0.65076464  1
  S  S15  1  0.66666700  0.66666700  0.55659308  1
  S  S16  1  0.66719238  0.16185748  0.55697875  1
  S  S17  1  0.17095115  0.66719238  0.55697875  1
  S  S18  1  0.16185748  0.17095115  0.55697875  1
  S  S19  1  0.83108493  0.33364810  0.65076464  1
  S  S20  1  0.83526597  0.83108493  0.65076464  1
