# generated using pymatgen
data_Ni3Mo4(Se3S4)2
_symmetry_space_group_name_H-M   'P 1'
_cell_length_a   6.25098182
_cell_length_b   6.25098200
_cell_length_c   30.00000000
_cell_angle_alpha   90.00000000
_cell_angle_beta   90.00000000
_cell_angle_gamma   59.99999903
_symmetry_Int_Tables_number   1
_chemical_formula_structural   Ni3Mo4(Se3S4)2
_chemical_formula_sum   'Ni3 Mo4 Se6 S8'
_cell_volume   1015.19241948
_cell_formula_units_Z   1
loop_
 _symmetry_equiv_pos_site_id
 _symmetry_equiv_pos_as_xyz
  1  'x, y, z'
loop_
 _atom_site_type_symbol
 _atom_site_label
 _atom_site_symmetry_multiplicity
 _atom_site_fract_x
 _atom_site_fract_y
 _atom_site_fract_z
 _atom_site_occupancy
  Ni  Ni0  1  0.00000000  0.00000000  0.59325277  1
  Ni  Ni1  1  0.33333300  0.33333300  0.59341659  1
  Ni  Ni2  1  0.66666700  0.66666700  0.59469134  1
  Mo  Mo3  1  0.49944222  0.50067585  0.39402038  1
  Mo  Mo4  1  0.50067585  0.99988193  0.39402038  1
  Mo  Mo5  1  0.00000000  0.00000000  0.39402402  1
  Mo  Mo6  1  0.99988193  0.49944222  0.39402038  1
  Se  Se7  1  0.66685719  0.33086715  0.63412998  1
  Se  Se8  1  0.00227566  0.66685719  0.63412998  1
  Se  Se9  1  0.66636474  0.99637749  0.55385367  1
  Se  Se10  1  0.33725777  0.66636474  0.55385367  1
  Se  Se11  1  0.99637749  0.33725777  0.55385367  1
  Se  Se12  1  0.33086715  0.00227566  0.63412998  1
  S  S13  1  0.66650107  0.16809051  0.44663111  1
  S  S14  1  0.16718847  0.16611387  0.34128458  1
  S  S15  1  0.16611387  0.66669866  0.34128458  1
  S  S16  1  0.66669866  0.16718847  0.34128458  1
  S  S17  1  0.66666700  0.66666700  0.34130787  1
  S  S18  1  0.16809051  0.16540942  0.44663111  1
  S  S19  1  0.16540942  0.66650107  0.44663111  1
  S  S20  1  0.66666700  0.66666700  0.44686825  1
