# generated using pymatgen
data_Ti3Cr4(Se3S4)2
_symmetry_space_group_name_H-M   'P 1'
_cell_length_a   6.07019022
_cell_length_b   6.07019000
_cell_length_c   30.00000000
_cell_angle_alpha   90.00000000
_cell_angle_beta   90.00000000
_cell_angle_gamma   60.00000120
_symmetry_Int_Tables_number   1
_chemical_formula_structural   Ti3Cr4(Se3S4)2
_chemical_formula_sum   'Ti3 Cr4 Se6 S8'
_cell_volume   957.31855645
_cell_formula_units_Z   1
loop_
 _symmetry_equiv_pos_site_id
 _symmetry_equiv_pos_as_xyz
  1  'x, y, z'
loop_
 _atom_site_type_symbol
 _atom_site_label
 _atom_site_symmetry_multiplicity
 _atom_site_fract_x
 _atom_site_fract_y
 _atom_site_fract_z
 _atom_site_occupancy
  Ti  Ti0  1  0.66666700  0.66666700  0.38703489  1
  Ti  Ti1  1  0.33333300  0.33333300  0.39295350  1
  Ti  Ti2  1  0.00000000  0.00000000  0.39438783  1
  Cr  Cr3  1  0.00000000  0.00000000  0.60469015  1
  Cr  Cr4  1  0.99987211  0.50084101  0.60467090  1
  Cr  Cr5  1  0.49928688  0.99987211  0.60467090  1
  Cr  Cr6  1  0.50084101  0.49928688  0.60467090  1
  Se  Se7  1  0.33924146  0.99509747  0.44484602  1
  Se  Se8  1  0.00456427  0.66746369  0.33764447  1
  Se  Se9  1  0.66746369  0.32797204  0.33764447  1
  Se  Se10  1  0.32797204  0.00456427  0.33764447  1
  Se  Se11  1  0.99509747  0.66566107  0.44484602  1
  Se  Se12  1  0.66566107  0.33924146  0.44484602  1
  S  S13  1  0.16729013  0.66662010  0.65362619  1
  S  S14  1  0.16609077  0.16729013  0.65362619  1
  S  S15  1  0.66666700  0.66666700  0.55566508  1
  S  S16  1  0.66656553  0.16528120  0.55588841  1
  S  S17  1  0.16815427  0.66656553  0.55588841  1
  S  S18  1  0.16528120  0.16815427  0.55588841  1
  S  S19  1  0.66666700  0.66666700  0.65361058  1
  S  S20  1  0.66662010  0.16609077  0.65362619  1
