# generated using pymatgen
data_ZrSnS4
_symmetry_space_group_name_H-M   'P 1'
_cell_length_a   3.63368430
_cell_length_b   3.63368500
_cell_length_c   30.00000000
_cell_angle_alpha   90.00000000
_cell_angle_beta   90.00000000
_cell_angle_gamma   60.00000273
_symmetry_Int_Tables_number   1
_chemical_formula_structural   ZrSnS4
_chemical_formula_sum   'Zr1 Sn1 S4'
_cell_volume   343.04126640
_cell_formula_units_Z   1
loop_
 _symmetry_equiv_pos_site_id
 _symmetry_equiv_pos_as_xyz
  1  'x, y, z'
loop_
 _atom_site_type_symbol
 _atom_site_label
 _atom_site_symmetry_multiplicity
 _atom_site_fract_x
 _atom_site_fract_y
 _atom_site_fract_z
 _atom_site_occupancy
  Zr  Zr0  1  0.00000000  0.00000000  0.38719515  1
  Sn  Sn1  1  0.00000000  0.00000000  0.60977009  1
  S  S2  1  0.33333300  0.33333300  0.55984449  1
  S  S3  1  0.66666700  0.66666700  0.65973051  1
  S  S4  1  0.33333300  0.33333300  0.33527001  1
  S  S5  1  0.33333300  0.33333300  0.43893975  1
