# generated using pymatgen
data_PdSeS
_symmetry_space_group_name_H-M   'P 1'
_cell_length_a   3.64220160
_cell_length_b   3.64220100
_cell_length_c   30.00000000
_cell_angle_alpha   90.00000000
_cell_angle_beta   90.00000000
_cell_angle_gamma   59.99999640
_symmetry_Int_Tables_number   1
_chemical_formula_structural   PdSeS
_chemical_formula_sum   'Pd2 Se2 S2'
_cell_volume   344.65117320
_cell_formula_units_Z   2
loop_
 _symmetry_equiv_pos_site_id
 _symmetry_equiv_pos_as_xyz
  1  'x, y, z'
loop_
 _atom_site_type_symbol
 _atom_site_label
 _atom_site_symmetry_multiplicity
 _atom_site_fract_x
 _atom_site_fract_y
 _atom_site_fract_z
 _atom_site_occupancy
  Pd  Pd0  1  0.00000000  0.00000000  0.57621630  1
  Pd  Pd1  1  0.00000000  0.00000000  0.42170909  1
  Se  Se2  1  0.33333300  0.33333300  0.37535102  1
  Se  Se3  1  0.66666700  0.66666700  0.46644445  1
  S  S4  1  0.33333300  0.33333300  0.53684516  1
  S  S5  1  0.66666700  0.66666700  0.61639999  1
