# generated using pymatgen
data_Hf3(Te7Mo2)2
_symmetry_space_group_name_H-M   'P 1'
_cell_length_a   6.93312802
_cell_length_b   6.93312800
_cell_length_c   30.00000000
_cell_angle_alpha   90.00000000
_cell_angle_beta   90.00000000
_cell_angle_gamma   60.00000010
_symmetry_Int_Tables_number   1
_chemical_formula_structural   Hf3(Te7Mo2)2
_chemical_formula_sum   'Hf3 Te14 Mo4'
_cell_volume   1248.85013373
_cell_formula_units_Z   1
loop_
 _symmetry_equiv_pos_site_id
 _symmetry_equiv_pos_as_xyz
  1  'x, y, z'
loop_
 _atom_site_type_symbol
 _atom_site_label
 _atom_site_symmetry_multiplicity
 _atom_site_fract_x
 _atom_site_fract_y
 _atom_site_fract_z
 _atom_site_occupancy
  Hf  Hf0  1  0.00000000  0.00000000  0.61703799  1
  Hf  Hf1  1  0.33333300  0.33333300  0.61871066  1
  Hf  Hf2  1  0.66666700  0.66666700  0.62891599  1
  Te  Te3  1  0.16411343  0.66638081  0.44132982  1
  Te  Te4  1  0.16950676  0.16411343  0.44132982  1
  Te  Te5  1  0.66666700  0.66666700  0.31915948  1
  Te  Te6  1  0.66665197  0.16808987  0.31916886  1
  Te  Te7  1  0.16525915  0.66665197  0.31916886  1
  Te  Te8  1  0.16808987  0.16525915  0.31916886  1
  Te  Te9  1  0.66638081  0.16950676  0.44132982  1
  Te  Te10  1  0.66666700  0.66666700  0.44157734  1
  Te  Te11  1  0.66833299  0.01084684  0.68183578  1
  Te  Te12  1  0.32082017  0.66833299  0.68183578  1
  Te  Te13  1  0.01084684  0.32082017  0.68183578  1
  Te  Te14  1  0.66483188  0.98825679  0.56145356  1
  Te  Te15  1  0.34691133  0.66483188  0.56145356  1
  Te  Te16  1  0.98825679  0.34691133  0.56145356  1
  Mo  Mo17  1  0.50198323  0.99984655  0.38023988  1
  Mo  Mo18  1  0.49817022  0.50198323  0.38023988  1
  Mo  Mo19  1  0.00000000  0.00000000  0.38027786  1
  Mo  Mo20  1  0.99984655  0.49817022  0.38023988  1
