# generated using pymatgen
data_Zr3Cr4(Se3S4)2
_symmetry_space_group_name_H-M   'P 1'
_cell_length_a   6.33145600
_cell_length_b   6.33145623
_cell_length_c   30.00000000
_cell_angle_alpha   90.00000000
_cell_angle_beta   90.00000000
_cell_angle_gamma   60.00000118
_symmetry_Int_Tables_number   1
_chemical_formula_structural   Zr3Cr4(Se3S4)2
_chemical_formula_sum   'Zr3 Cr4 Se6 S8'
_cell_volume   1041.49956606
_cell_formula_units_Z   1
loop_
 _symmetry_equiv_pos_site_id
 _symmetry_equiv_pos_as_xyz
  1  'x, y, z'
loop_
 _atom_site_type_symbol
 _atom_site_label
 _atom_site_symmetry_multiplicity
 _atom_site_fract_x
 _atom_site_fract_y
 _atom_site_fract_z
 _atom_site_occupancy
  Zr  Zr0  1  0.00000000  0.00000000  0.60639889  1
  Zr  Zr1  1  0.33333300  0.33333300  0.60672488  1
  Zr  Zr2  1  0.66666700  0.66666700  0.60783424  1
  Cr  Cr3  1  0.49921097  0.50099248  0.39555277  1
  Cr  Cr4  1  0.50099248  0.99979655  0.39555277  1
  Cr  Cr5  1  0.00000000  0.00000000  0.39550439  1
  Cr  Cr6  1  0.99979655  0.49921097  0.39555277  1
  Se  Se7  1  0.66699113  0.33165948  0.66197208  1
  Se  Se8  1  0.00134939  0.66699113  0.66197208  1
  Se  Se9  1  0.66630408  0.99832499  0.55232629  1
  Se  Se10  1  0.33537093  0.66630408  0.55232629  1
  Se  Se11  1  0.99832499  0.33537093  0.55232629  1
  Se  Se12  1  0.33165948  0.00134939  0.66197208  1
  S  S13  1  0.66667220  0.16844535  0.44312541  1
  S  S14  1  0.16747483  0.16597061  0.34774844  1
  S  S15  1  0.16597061  0.66655556  0.34774844  1
  S  S16  1  0.66655556  0.16747483  0.34774844  1
  S  S17  1  0.66666700  0.66666700  0.34778100  1
  S  S18  1  0.16844535  0.16488345  0.44312541  1
  S  S19  1  0.16488345  0.66667220  0.44312541  1
  S  S20  1  0.66666700  0.66666700  0.44340063  1
