# generated using pymatgen
data_Ni7Pt4(Se4O7)2
_symmetry_space_group_name_H-M   'P 1'
_cell_length_a   7.49715295
_cell_length_b   7.49715320
_cell_length_c   30.00000000
_cell_angle_alpha   90.00000000
_cell_angle_beta   90.00000000
_cell_angle_gamma   60.00000070
_symmetry_Int_Tables_number   1
_chemical_formula_structural   Ni7Pt4(Se4O7)2
_chemical_formula_sum   'Ni7 Pt4 Se8 O14'
_cell_volume   1460.30861168
_cell_formula_units_Z   1
loop_
 _symmetry_equiv_pos_site_id
 _symmetry_equiv_pos_as_xyz
  1  'x, y, z'
loop_
 _atom_site_type_symbol
 _atom_site_label
 _atom_site_symmetry_multiplicity
 _atom_site_fract_x
 _atom_site_fract_y
 _atom_site_fract_z
 _atom_site_occupancy
  Ni  Ni0  1  0.00000000  0.00000000  0.57995275  1
  Ni  Ni1  1  0.14343132  0.28562694  0.57947446  1
  Ni  Ni2  1  0.57094175  0.14343132  0.57947446  1
  Ni  Ni3  1  0.28562694  0.57094175  0.57947446  1
  Ni  Ni4  1  0.71410023  0.42868502  0.57938023  1
  Ni  Ni5  1  0.42868502  0.85721475  0.57938023  1
  Ni  Ni6  1  0.85721475  0.71410023  0.57938023  1
  Pt  Pt7  1  0.50065089  0.00027291  0.41687104  1
  Pt  Pt8  1  0.49907621  0.50065089  0.41687104  1
  Pt  Pt9  1  0.00000000  0.00000000  0.41736828  1
  Pt  Pt10  1  0.00027291  0.49907621  0.41687104  1
  Se  Se11  1  0.66767995  0.16726501  0.37319930  1
  Se  Se12  1  0.16505604  0.66767995  0.37319930  1
  Se  Se13  1  0.16726501  0.16505604  0.37319930  1
  Se  Se14  1  0.33333300  0.33333300  0.46021839  1
  Se  Se15  1  0.66666700  0.66666700  0.37311522  1
  Se  Se16  1  0.33507964  0.83372929  0.45990595  1
  Se  Se17  1  0.83119007  0.33507964  0.45990595  1
  Se  Se18  1  0.83372929  0.83119007  0.45990595  1
  O  O19  1  0.90530808  0.47639553  0.61076345  1
  O  O20  1  0.61829639  0.90530808  0.61076345  1
  O  O21  1  0.04787917  0.76056518  0.61102768  1
  O  O22  1  0.33333300  0.33333300  0.61109145  1
  O  O23  1  0.19155564  0.04787917  0.61102768  1
  O  O24  1  0.80936263  0.95369689  0.54793110  1
  O  O25  1  0.38088513  0.09492795  0.54759202  1
  O  O26  1  0.66666700  0.66666700  0.54735626  1
  O  O27  1  0.23694048  0.80936263  0.54793110  1
  O  O28  1  0.52418691  0.38088513  0.54759202  1
  O  O29  1  0.09492795  0.52418691  0.54759202  1
  O  O30  1  0.95369689  0.23694048  0.54793110  1
  O  O31  1  0.47639553  0.61829639  0.61076345  1
  O  O32  1  0.76056518  0.19155564  0.61102768  1
