# generated using pymatgen
data_Hf3Ge4(S3O4)2
_symmetry_space_group_name_H-M   'P 1'
_cell_length_a   5.96844000
_cell_length_b   5.96844029
_cell_length_c   30.00000000
_cell_angle_alpha   90.00000000
_cell_angle_beta   90.00000000
_cell_angle_gamma   60.00000163
_symmetry_Int_Tables_number   1
_chemical_formula_structural   Hf3Ge4(S3O4)2
_chemical_formula_sum   'Hf3 Ge4 S6 O8'
_cell_volume   925.49394028
_cell_formula_units_Z   1
loop_
 _symmetry_equiv_pos_site_id
 _symmetry_equiv_pos_as_xyz
  1  'x, y, z'
loop_
 _atom_site_type_symbol
 _atom_site_label
 _atom_site_symmetry_multiplicity
 _atom_site_fract_x
 _atom_site_fract_y
 _atom_site_fract_z
 _atom_site_occupancy
  Hf  Hf0  1  0.66666700  0.66666700  0.39111213  1
  Hf  Hf1  1  0.33333300  0.33333300  0.40013373  1
  Hf  Hf2  1  0.00000000  0.00000000  0.40052040  1
  Ge  Ge3  1  0.00000000  0.00000000  0.58519822  1
  Ge  Ge4  1  0.99995450  0.49985421  0.58505443  1
  Ge  Ge5  1  0.50019129  0.99995450  0.58505443  1
  Ge  Ge6  1  0.49985421  0.50019129  0.58505443  1
  S  S7  1  0.99106773  0.34269312  0.44993407  1
  S  S8  1  0.66701795  0.00923985  0.34444414  1
  S  S9  1  0.32374221  0.66701795  0.34444414  1
  S  S10  1  0.00923985  0.32374221  0.34444414  1
  S  S11  1  0.66623916  0.99106773  0.44993407  1
  S  S12  1  0.34269312  0.66623916  0.44993407  1
  O  O13  1  0.33333300  0.33333300  0.61699186  1
  O  O14  1  0.33354332  0.83270697  0.61704323  1
  O  O15  1  0.66666700  0.66666700  0.55308126  1
  O  O16  1  0.66682156  0.16763234  0.55322726  1
  O  O17  1  0.16554710  0.66682156  0.55322726  1
  O  O18  1  0.16763234  0.16554710  0.55322726  1
  O  O19  1  0.83374871  0.33354332  0.61704323  1
  O  O20  1  0.83270697  0.83374871  0.61704323  1
