# generated using pymatgen
data_TiPtS4
_symmetry_space_group_name_H-M   'P 1'
_cell_length_a   5.98945509
_cell_length_b   5.98945509
_cell_length_c   30.00000000
_cell_angle_alpha   90.00000000
_cell_angle_beta   90.00000000
_cell_angle_gamma   60.00001005
_symmetry_Int_Tables_number   1
_chemical_formula_structural   TiPtS4
_chemical_formula_sum   'Ti3 Pt3 S12'
_cell_volume   932.02284183
_cell_formula_units_Z   3
loop_
 _symmetry_equiv_pos_site_id
 _symmetry_equiv_pos_as_xyz
  1  'x, y, z'
loop_
 _atom_site_type_symbol
 _atom_site_label
 _atom_site_symmetry_multiplicity
 _atom_site_fract_x
 _atom_site_fract_y
 _atom_site_fract_z
 _atom_site_occupancy
  Ti  Ti0  1  0.66666700  0.66666700  0.40316432  1
  Ti  Ti1  1  0.33333300  0.33333300  0.40316432  1
  Ti  Ti2  1  0.00000000  -0.00000000  0.40316432  1
  Pt  Pt3  1  0.00000000  0.00000000  0.58738726  1
  Pt  Pt4  1  0.33333300  0.33333300  0.58738726  1
  Pt  Pt5  1  0.66666700  0.66666700  0.58738726  1
  S  S6  1  0.00000000  0.33333300  0.45209934  1
  S  S7  1  0.66666700  0.00000000  0.35381060  1
  S  S8  1  0.33333300  0.66666700  0.35381060  1
  S  S9  1  -0.00000000  0.33333300  0.35381060  1
  S  S10  1  0.00000000  0.33333300  0.63073992  1
  S  S11  1  0.66666700  0.00000000  0.63073992  1
  S  S12  1  0.33333300  0.66666700  0.63073992  1
  S  S13  1  0.00000000  0.66666700  0.54488657  1
  S  S14  1  0.66666700  0.33333300  0.54488657  1
  S  S15  1  0.33333300  -0.00000000  0.54488657  1
  S  S16  1  0.33333300  0.66666700  0.45209934  1
  S  S17  1  0.66666700  -0.00000000  0.45209934  1
