# generated using pymatgen
data_Ti4Ni7(Te4O7)2
_symmetry_space_group_name_H-M   'P 1'
_cell_length_a   7.48829755
_cell_length_b   7.48829733
_cell_length_c   30.00000000
_cell_angle_alpha   90.00000000
_cell_angle_beta   90.00000000
_cell_angle_gamma   59.99999872
_symmetry_Int_Tables_number   1
_chemical_formula_structural   Ti4Ni7(Te4O7)2
_chemical_formula_sum   'Ti4 Ni7 Te8 O14'
_cell_volume   1456.86078660
_cell_formula_units_Z   1
loop_
 _symmetry_equiv_pos_site_id
 _symmetry_equiv_pos_as_xyz
  1  'x, y, z'
loop_
 _atom_site_type_symbol
 _atom_site_label
 _atom_site_symmetry_multiplicity
 _atom_site_fract_x
 _atom_site_fract_y
 _atom_site_fract_z
 _atom_site_occupancy
  Ti  Ti0  1  0.00000000  0.00000000  0.40124027  1
  Ti  Ti1  1  0.49852835  0.00191518  0.40078244  1
  Ti  Ti2  1  0.49955646  0.49852835  0.40078244  1
  Ti  Ti3  1  0.00191518  0.49955646  0.40078244  1
  Ni  Ni4  1  0.85783745  0.42739694  0.57987256  1
  Ni  Ni5  1  0.00000000  0.00000000  0.57968172  1
  Ni  Ni6  1  0.57138445  0.28596325  0.58002328  1
  Ni  Ni7  1  0.42739694  0.71476561  0.57987256  1
  Ni  Ni8  1  0.28596325  0.14265230  0.58002328  1
  Ni  Ni9  1  0.14265230  0.57138445  0.58002328  1
  Ni  Ni10  1  0.71476561  0.85783745  0.57987256  1
  Te  Te11  1  0.16602205  0.66730063  0.45895235  1
  Te  Te12  1  0.66666700  0.66666700  0.34134172  1
  Te  Te13  1  0.66683802  0.16607061  0.34100807  1
  Te  Te14  1  0.16709236  0.66683802  0.34100807  1
  Te  Te15  1  0.16607061  0.16709236  0.34100807  1
  Te  Te16  1  0.16667832  0.16602205  0.45895235  1
  Te  Te17  1  0.66666700  0.66666700  0.45786843  1
  Te  Te18  1  0.66730063  0.16667832  0.45895235  1
  O  O19  1  0.76361949  0.04751429  0.61152260  1
  O  O20  1  0.90469041  0.61924924  0.61116928  1
  O  O21  1  0.04751429  0.18886622  0.61152260  1
  O  O22  1  0.33333300  0.33333300  0.61156233  1
  O  O23  1  0.18886622  0.76361949  0.61152260  1
  O  O24  1  0.09615028  0.38043625  0.54794914  1
  O  O25  1  0.95274846  0.80915333  0.54772573  1
  O  O26  1  0.80915333  0.23809821  0.54772573  1
  O  O27  1  0.66666700  0.66666700  0.54738323  1
  O  O28  1  0.52341346  0.09615028  0.54794914  1
  O  O29  1  0.38043625  0.52341346  0.54794914  1
  O  O30  1  0.23809821  0.95274846  0.54772573  1
  O  O31  1  0.61924924  0.47606035  0.61116928  1
  O  O32  1  0.47606035  0.90469041  0.61116928  1
