# generated using pymatgen
data_CrNi(TeS)2
_symmetry_space_group_name_H-M   'P 1'
_cell_length_a   5.90953574
_cell_length_b   5.90953574
_cell_length_c   30.00000000
_cell_angle_alpha   90.00000000
_cell_angle_beta   90.00000000
_cell_angle_gamma   60.00000291
_symmetry_Int_Tables_number   1
_chemical_formula_structural   CrNi(TeS)2
_chemical_formula_sum   'Cr3 Ni3 Te6 S6'
_cell_volume   907.31611851
_cell_formula_units_Z   3
loop_
 _symmetry_equiv_pos_site_id
 _symmetry_equiv_pos_as_xyz
  1  'x, y, z'
loop_
 _atom_site_type_symbol
 _atom_site_label
 _atom_site_symmetry_multiplicity
 _atom_site_fract_x
 _atom_site_fract_y
 _atom_site_fract_z
 _atom_site_occupancy
  Cr  Cr0  1  0.66666700  0.66666700  0.39220319  1
  Cr  Cr1  1  0.33333300  0.33333300  0.39220319  1
  Cr  Cr2  1  0.00000000  0.00000000  0.39220319  1
  Ni  Ni3  1  0.00000000  0.00000000  0.58986455  1
  Ni  Ni4  1  0.33333300  0.33333300  0.58986455  1
  Ni  Ni5  1  0.66666700  0.66666700  0.58986455  1
  Te  Te6  1  0.33333300  0.00000000  0.44944922  1
  Te  Te7  1  0.00000000  0.66666700  0.33482911  1
  Te  Te8  1  0.66666700  0.33333300  0.33482911  1
  Te  Te9  1  0.33333300  0.00000000  0.33482911  1
  Te  Te10  1  0.00000000  0.66666700  0.44944922  1
  Te  Te11  1  0.66666700  0.33333300  0.44944922  1
  S  S12  1  0.66666700  0.33333300  0.62817715  1
  S  S13  1  0.33333300  0.00000000  0.62817715  1
  S  S14  1  0.66666700  0.00000000  0.55241278  1
  S  S15  1  0.33333300  0.66666700  0.55241278  1
  S  S16  1  0.00000000  0.33333300  0.55241278  1
  S  S17  1  0.00000000  0.66666700  0.62817715  1
