# generated using pymatgen
data_Ti3Pt4(Se3O4)2
_symmetry_space_group_name_H-M   'P 1'
_cell_length_a   6.16740800
_cell_length_b   6.16740800
_cell_length_c   30.00000000
_cell_angle_alpha   90.00000000
_cell_angle_beta   90.00000000
_cell_angle_gamma   59.99999998
_symmetry_Int_Tables_number   1
_chemical_formula_structural   Ti3Pt4(Se3O4)2
_chemical_formula_sum   'Ti3 Pt4 Se6 O8'
_cell_volume   988.22820678
_cell_formula_units_Z   1
loop_
 _symmetry_equiv_pos_site_id
 _symmetry_equiv_pos_as_xyz
  1  'x, y, z'
loop_
 _atom_site_type_symbol
 _atom_site_label
 _atom_site_symmetry_multiplicity
 _atom_site_fract_x
 _atom_site_fract_y
 _atom_site_fract_z
 _atom_site_occupancy
  Ti  Ti0  1  0.66672637  0.66664482  0.39370561  1
  Ti  Ti1  1  0.33336730  0.33335299  0.40233090  1
  Ti  Ti2  1  0.00004605  0.00000003  0.40376550  1
  Pt  Pt3  1  0.99999967  0.00000048  0.58093044  1
  Pt  Pt4  1  0.99990106  0.50017819  0.58091759  1
  Pt  Pt5  1  0.49991955  0.99990133  0.58091705  1
  Pt  Pt6  1  0.50017846  0.49992049  0.58091748  1
  Se  Se7  1  0.34094847  0.99319845  0.45266540  1
  Se  Se8  1  0.00658473  0.66726255  0.34665942  1
  Se  Se9  1  0.66729687  0.32619071  0.34666053  1
  Se  Se10  1  0.32619425  0.00655760  0.34666805  1
  Se  Se11  1  0.99326038  0.66581644  0.45268645  1
  Se  Se12  1  0.66587921  0.34097485  0.45268605  1
  O  O13  1  0.33333358  0.33333300  0.61391018  1
  O  O14  1  0.33316817  0.83289976  0.61390865  1
  O  O15  1  0.66666714  0.66666731  0.54792445  1
  O  O16  1  0.66659401  0.16582442  0.54805282  1
  O  O17  1  0.16758084  0.66659465  0.54805343  1
  O  O18  1  0.16582505  0.16758060  0.54805180  1
  O  O19  1  0.83393077  0.33316897  0.61390920  1
  O  O20  1  0.83289808  0.83393235  0.61390901  1
