# generated using pymatgen
data_Hf4Te6Pt3O8
_symmetry_space_group_name_H-M   'P 1'
_cell_length_a   6.72909953
_cell_length_b   6.72909953
_cell_length_c   30.00000000
_cell_angle_alpha   90.00000000
_cell_angle_beta   90.00000000
_cell_angle_gamma   60.00000464
_symmetry_Int_Tables_number   1
_chemical_formula_structural   Hf4Te6Pt3O8
_chemical_formula_sum   'Hf4 Te6 Pt3 O8'
_cell_volume   1176.42924048
_cell_formula_units_Z   1
loop_
 _symmetry_equiv_pos_site_id
 _symmetry_equiv_pos_as_xyz
  1  'x, y, z'
loop_
 _atom_site_type_symbol
 _atom_site_label
 _atom_site_symmetry_multiplicity
 _atom_site_fract_x
 _atom_site_fract_y
 _atom_site_fract_z
 _atom_site_occupancy
  Hf  Hf0  1  0.00000000  0.00000000  0.58649218  1
  Hf  Hf1  1  0.99940628  0.50075696  0.58582698  1
  Hf  Hf2  1  0.49983676  0.99940628  0.58582698  1
  Hf  Hf3  1  0.50075696  0.49983676  0.58582698  1
  Te  Te4  1  0.34076202  0.66480818  0.45032428  1
  Te  Te5  1  0.00434958  0.66822802  0.35302642  1
  Te  Te6  1  0.66822802  0.32742241  0.35302642  1
  Te  Te7  1  0.32742241  0.00434958  0.35302642  1
  Te  Te8  1  0.66480818  0.99442980  0.45032428  1
  Te  Te9  1  0.99442980  0.34076202  0.45032428  1
  Pt  Pt10  1  0.00000000  0.00000000  0.40299661  1
  Pt  Pt11  1  0.33333300  0.33333300  0.40232586  1
  Pt  Pt12  1  0.66666700  0.66666700  0.40014486  1
  O  O13  1  0.33470219  0.83248473  0.61635370  1
  O  O14  1  0.83281208  0.33470219  0.61635370  1
  O  O15  1  0.66666700  0.66666700  0.55560945  1
  O  O16  1  0.66839619  0.16728816  0.55610707  1
  O  O17  1  0.16431665  0.66839619  0.55610707  1
  O  O18  1  0.16728816  0.16431665  0.55610707  1
  O  O19  1  0.33333300  0.33333300  0.61583268  1
  O  O20  1  0.83248473  0.83281208  0.61635370  1
