# generated using pymatgen
data_Hf7(Se3O4)2
_symmetry_space_group_name_H-M   'P 1'
_cell_length_a   6.51732387
_cell_length_b   6.51732387
_cell_length_c   30.00000000
_cell_angle_alpha   90.00000000
_cell_angle_beta   90.00000000
_cell_angle_gamma   60.00000131
_symmetry_Int_Tables_number   1
_chemical_formula_structural   Hf7(Se3O4)2
_chemical_formula_sum   'Hf7 Se6 O8'
_cell_volume   1103.54614699
_cell_formula_units_Z   1
loop_
 _symmetry_equiv_pos_site_id
 _symmetry_equiv_pos_as_xyz
  1  'x, y, z'
loop_
 _atom_site_type_symbol
 _atom_site_label
 _atom_site_symmetry_multiplicity
 _atom_site_fract_x
 _atom_site_fract_y
 _atom_site_fract_z
 _atom_site_occupancy
  Hf  Hf0  1  0.00000000  0.00000000  0.58542461  1
  Hf  Hf1  1  0.99985906  0.50014139  0.58502534  1
  Hf  Hf2  1  0.49999955  0.99985906  0.58502534  1
  Hf  Hf3  1  0.50014139  0.49999955  0.58502534  1
  Hf  Hf4  1  0.66666700  0.66666700  0.39615756  1
  Hf  Hf5  1  0.33333300  0.33333300  0.39688489  1
  Hf  Hf6  1  0.00000000  0.00000000  0.39684632  1
  Se  Se7  1  0.33444136  0.66673488  0.44870744  1
  Se  Se8  1  0.00087810  0.66667547  0.34432844  1
  Se  Se9  1  0.66667547  0.33244643  0.34432844  1
  Se  Se10  1  0.33244643  0.00087810  0.34432844  1
  Se  Se11  1  0.99882375  0.33444136  0.44870744  1
  Se  Se12  1  0.66673488  0.99882375  0.44870744  1
  O  O13  1  0.33333300  0.33333300  0.61690609  1
  O  O14  1  0.33394562  0.83297539  0.61709448  1
  O  O15  1  0.66666700  0.66666700  0.55312485  1
  O  O16  1  0.66731562  0.16701026  0.55341886  1
  O  O17  1  0.16567512  0.66731562  0.55341886  1
  O  O18  1  0.16701026  0.16567512  0.55341886  1
  O  O19  1  0.83307799  0.33394562  0.61709448  1
  O  O20  1  0.83297539  0.83307799  0.61709448  1
