# generated using pymatgen
data_Ti4Te6Mo3O8
_symmetry_space_group_name_H-M   'P 1'
_cell_length_a   6.05809597
_cell_length_b   6.05809597
_cell_length_c   30.00000000
_cell_angle_alpha   90.00000000
_cell_angle_beta   90.00000000
_cell_angle_gamma   60.00000033
_symmetry_Int_Tables_number   1
_chemical_formula_structural   Ti4Te6Mo3O8
_chemical_formula_sum   'Ti4 Te6 Mo3 O8'
_cell_volume   953.50765892
_cell_formula_units_Z   1
loop_
 _symmetry_equiv_pos_site_id
 _symmetry_equiv_pos_as_xyz
  1  'x, y, z'
loop_
 _atom_site_type_symbol
 _atom_site_label
 _atom_site_symmetry_multiplicity
 _atom_site_fract_x
 _atom_site_fract_y
 _atom_site_fract_z
 _atom_site_occupancy
  Ti  Ti0  1  0.00000000  0.00000000  0.58325186  1
  Ti  Ti1  1  0.99593528  0.49817875  0.58959424  1
  Ti  Ti2  1  0.50588597  0.99593528  0.58959424  1
  Ti  Ti3  1  0.49817875  0.50588597  0.58959424  1
  Te  Te4  1  0.33441230  0.99916321  0.44607217  1
  Te  Te5  1  0.00025063  0.66675367  0.32468644  1
  Te  Te6  1  0.66675367  0.33299571  0.32468644  1
  Te  Te7  1  0.33299571  0.00025063  0.32468644  1
  Te  Te8  1  0.66642449  0.33441230  0.44607217  1
  Te  Te9  1  0.99916321  0.66642449  0.44607217  1
  Mo  Mo10  1  0.00000000  0.00000000  0.38545869  1
  Mo  Mo11  1  0.33333300  0.33333300  0.38540010  1
  Mo  Mo12  1  0.66666700  0.66666700  0.38520830  1
  O  O13  1  0.33479903  0.83278847  0.62001530  1
  O  O14  1  0.83241150  0.33479903  0.62001530  1
  O  O15  1  0.66666700  0.66666700  0.55562389  1
  O  O16  1  0.66790454  0.16433783  0.55534587  1
  O  O17  1  0.16775863  0.66790454  0.55534587  1
  O  O18  1  0.16433783  0.16775863  0.55534587  1
  O  O19  1  0.33333300  0.33333300  0.61990808  1
  O  O20  1  0.83278847  0.83241150  0.62001530  1
