# generated using pymatgen
data_Sn3W4(Se3S4)2
_symmetry_space_group_name_H-M   'P 1'
_cell_length_a   6.53175546
_cell_length_b   6.53175546
_cell_length_c   30.00000000
_cell_angle_alpha   90.00000000
_cell_angle_beta   90.00000000
_cell_angle_gamma   60.00000550
_symmetry_Int_Tables_number   1
_chemical_formula_structural   Sn3W4(Se3S4)2
_chemical_formula_sum   'Sn3 W4 Se6 S8'
_cell_volume   1108.43886256
_cell_formula_units_Z   1
loop_
 _symmetry_equiv_pos_site_id
 _symmetry_equiv_pos_as_xyz
  1  'x, y, z'
loop_
 _atom_site_type_symbol
 _atom_site_label
 _atom_site_symmetry_multiplicity
 _atom_site_fract_x
 _atom_site_fract_y
 _atom_site_fract_z
 _atom_site_occupancy
  Sn  Sn0  1  0.00000000  0.00000000  0.60813779  1
  Sn  Sn1  1  0.33333300  0.33333300  0.60810711  1
  Sn  Sn2  1  0.66666700  0.66666700  0.60868200  1
  W  W3  1  0.50076262  0.49938267  0.39165675  1
  W  W4  1  0.49938267  0.99985471  0.39165675  1
  W  W5  1  0.00000000  0.00000000  0.39161358  1
  W  W6  1  0.99985471  0.50076262  0.39165675  1
  Se  Se7  1  0.66663131  0.00125101  0.66242492  1
  Se  Se8  1  0.00125101  0.33211768  0.66242492  1
  Se  Se9  1  0.99801525  0.66673493  0.55422332  1
  Se  Se10  1  0.66673493  0.33524982  0.55422332  1
  Se  Se11  1  0.33524982  0.99801525  0.55422332  1
  Se  Se12  1  0.33211768  0.66663131  0.66242492  1
  S  S13  1  0.66660300  0.16531808  0.44281347  1
  S  S14  1  0.16607551  0.16728338  0.34029014  1
  S  S15  1  0.16728338  0.66664211  0.34029014  1
  S  S16  1  0.66664211  0.16607551  0.34029014  1
  S  S17  1  0.66666700  0.66666700  0.34035138  1
  S  S18  1  0.16531808  0.16807992  0.44281347  1
  S  S19  1  0.16807992  0.66660300  0.44281347  1
  S  S20  1  0.66666700  0.66666700  0.44310034  1
