# generated using pymatgen
data_Hf4Ti7(Te4O7)2
_symmetry_space_group_name_H-M   'P 1'
_cell_length_a   7.85956946
_cell_length_b   7.85956939
_cell_length_c   30.00000000
_cell_angle_alpha   90.00000000
_cell_angle_beta   90.00000000
_cell_angle_gamma   59.99999993
_symmetry_Int_Tables_number   1
_chemical_formula_structural   Hf4Ti7(Te4O7)2
_chemical_formula_sum   'Hf4 Ti7 Te8 O14'
_cell_volume   1604.90524098
_cell_formula_units_Z   1
loop_
 _symmetry_equiv_pos_site_id
 _symmetry_equiv_pos_as_xyz
  1  'x, y, z'
loop_
 _atom_site_type_symbol
 _atom_site_label
 _atom_site_symmetry_multiplicity
 _atom_site_fract_x
 _atom_site_fract_y
 _atom_site_fract_z
 _atom_site_occupancy
  Hf  Hf0  1  0.00000000  0.00000000  0.38517998  1
  Hf  Hf1  1  0.50058459  0.99992438  0.38549385  1
  Hf  Hf2  1  0.49949103  0.50058459  0.38549385  1
  Hf  Hf3  1  0.99992438  0.49949103  0.38549385  1
  Ti  Ti4  1  0.71483532  0.85649364  0.58735139  1
  Ti  Ti5  1  0.00000000  0.00000000  0.58845898  1
  Ti  Ti6  1  0.42867104  0.71483532  0.58735139  1
  Ti  Ti7  1  0.57123352  0.28546758  0.58806282  1
  Ti  Ti8  1  0.14329890  0.57123352  0.58806282  1
  Ti  Ti9  1  0.28546758  0.14329890  0.58806282  1
  Ti  Ti10  1  0.85649364  0.42867104  0.58735139  1
  Te  Te11  1  0.16557723  0.66659983  0.44617332  1
  Te  Te12  1  0.66666700  0.66666700  0.32419673  1
  Te  Te13  1  0.66649046  0.16701055  0.32407326  1
  Te  Te14  1  0.16650000  0.66649046  0.32407326  1
  Te  Te15  1  0.16701055  0.16650000  0.32407326  1
  Te  Te16  1  0.16782394  0.16557723  0.44617332  1
  Te  Te17  1  0.66666700  0.66666700  0.44641187  1
  Te  Te18  1  0.66659983  0.16782394  0.44617332  1
  O  O19  1  0.66666700  0.66666700  0.62041271  1
  O  O20  1  0.09507845  0.38119540  0.62066024  1
  O  O21  1  0.95230023  0.80855654  0.62087200  1
  O  O22  1  0.52372615  0.09507845  0.62066024  1
  O  O23  1  0.23914323  0.95230023  0.62087200  1
  O  O24  1  0.76280669  0.04715350  0.55487805  1
  O  O25  1  0.90507648  0.61900153  0.55438867  1
  O  O26  1  0.47592199  0.90507648  0.55438867  1
  O  O27  1  0.61900153  0.47592199  0.55438867  1
  O  O28  1  0.19003981  0.76280669  0.55487805  1
  O  O29  1  0.33333300  0.33333300  0.55465697  1
  O  O30  1  0.04715350  0.19003981  0.55487805  1
  O  O31  1  0.80855654  0.23914323  0.62087200  1
  O  O32  1  0.38119540  0.52372615  0.62066024  1
