# generated using pymatgen
data_Zr4Ni7(Se4O7)2
_symmetry_space_group_name_H-M   'P 1'
_cell_length_a   7.45310724
_cell_length_b   7.45310783
_cell_length_c   30.00000000
_cell_angle_alpha   90.00000000
_cell_angle_beta   90.00000000
_cell_angle_gamma   60.00000065
_symmetry_Int_Tables_number   1
_chemical_formula_structural   Zr4Ni7(Se4O7)2
_chemical_formula_sum   'Zr4 Ni7 Se8 O14'
_cell_volume   1443.20047830
_cell_formula_units_Z   1
loop_
 _symmetry_equiv_pos_site_id
 _symmetry_equiv_pos_as_xyz
  1  'x, y, z'
loop_
 _atom_site_type_symbol
 _atom_site_label
 _atom_site_symmetry_multiplicity
 _atom_site_fract_x
 _atom_site_fract_y
 _atom_site_fract_z
 _atom_site_occupancy
  Zr  Zr0  1  0.00000000  0.00000000  0.40784266  1
  Zr  Zr1  1  0.50081084  0.99930878  0.39960385  1
  Zr  Zr2  1  0.49988039  0.50081084  0.39960385  1
  Zr  Zr3  1  0.99930878  0.49988039  0.39960385  1
  Ni  Ni4  1  0.71424733  0.85677985  0.58101935  1
  Ni  Ni5  1  0.00000000  0.00000000  0.58145143  1
  Ni  Ni6  1  0.42897283  0.71424733  0.58101935  1
  Ni  Ni7  1  0.57128564  0.28600030  0.58104593  1
  Ni  Ni8  1  0.14271406  0.57128564  0.58104593  1
  Ni  Ni9  1  0.28600030  0.14271406  0.58104593  1
  Ni  Ni10  1  0.85677985  0.42897283  0.58101935  1
  Se  Se11  1  0.16958828  0.65935383  0.45747302  1
  Se  Se12  1  0.66666700  0.66666700  0.34355657  1
  Se  Se13  1  0.67298303  0.16386886  0.34601164  1
  Se  Se14  1  0.16314910  0.67298303  0.34601164  1
  Se  Se15  1  0.16386886  0.16314910  0.34601164  1
  Se  Se16  1  0.17105889  0.16958828  0.45747302  1
  Se  Se17  1  0.66666700  0.66666700  0.45567833  1
  Se  Se18  1  0.65935383  0.17105889  0.45747302  1
  O  O19  1  0.66666700  0.66666700  0.61276979  1
  O  O20  1  0.09484951  0.38129350  0.61264608  1
  O  O21  1  0.95189214  0.80878061  0.61278374  1
  O  O22  1  0.52385698  0.09484951  0.61264608  1
  O  O23  1  0.23932725  0.95189214  0.61278374  1
  O  O24  1  0.76243159  0.04720664  0.54939570  1
  O  O25  1  0.90505858  0.61912081  0.54912750  1
  O  O26  1  0.47582061  0.90505858  0.54912750  1
  O  O27  1  0.61912081  0.47582061  0.54912750  1
  O  O28  1  0.19036177  0.76243159  0.54939570  1
  O  O29  1  0.33333300  0.33333300  0.54909883  1
  O  O30  1  0.04720664  0.19036177  0.54939570  1
  O  O31  1  0.80878061  0.23932725  0.61278374  1
  O  O32  1  0.38129350  0.52385698  0.61264608  1
