# generated using pymatgen
data_Ti3Sn4(Te3O4)2
_symmetry_space_group_name_H-M   'P 1'
_cell_length_a   6.46021800
_cell_length_b   6.46021808
_cell_length_c   30.00000000
_cell_angle_alpha   90.00000000
_cell_angle_beta   90.00000000
_cell_angle_gamma   60.00000043
_symmetry_Int_Tables_number   1
_chemical_formula_structural   Ti3Sn4(Te3O4)2
_chemical_formula_sum   'Ti3 Sn4 Te6 O8'
_cell_volume   1084.29196882
_cell_formula_units_Z   1
loop_
 _symmetry_equiv_pos_site_id
 _symmetry_equiv_pos_as_xyz
  1  'x, y, z'
loop_
 _atom_site_type_symbol
 _atom_site_label
 _atom_site_symmetry_multiplicity
 _atom_site_fract_x
 _atom_site_fract_y
 _atom_site_fract_z
 _atom_site_occupancy
  Ti  Ti0  1  0.66666700  0.66666700  0.38594209  1
  Ti  Ti1  1  0.33333300  0.33333300  0.38836623  1
  Ti  Ti2  1  0.00000000  0.00000000  0.38863978  1
  Sn  Sn3  1  0.00000000  0.00000000  0.58777281  1
  Sn  Sn4  1  0.99984746  0.49985588  0.58766044  1
  Sn  Sn5  1  0.50029666  0.99984746  0.58766044  1
  Sn  Sn6  1  0.49985588  0.50029666  0.58766044  1
  Te  Te7  1  0.99665750  0.33695737  0.44680336  1
  Te  Te8  1  0.66692411  0.00235483  0.32814329  1
  Te  Te9  1  0.33072106  0.66692411  0.32814329  1
  Te  Te10  1  0.00235483  0.33072106  0.32814329  1
  Te  Te11  1  0.66638513  0.99665750  0.44680336  1
  Te  Te12  1  0.33695737  0.66638513  0.44680336  1
  O  O13  1  0.33333300  0.33333300  0.62125104  1
  O  O14  1  0.33348510  0.83289085  0.62132225  1
  O  O15  1  0.66666700  0.66666700  0.55363091  1
  O  O16  1  0.66682744  0.16769941  0.55378670  1
  O  O17  1  0.16547414  0.66682744  0.55378670  1
  O  O18  1  0.16769941  0.16547414  0.55378670  1
  O  O19  1  0.83362305  0.33348510  0.62132225  1
  O  O20  1  0.83289085  0.83362305  0.62132225  1
