# generated using pymatgen
data_Hf3Zr4(Te3O4)2
_symmetry_space_group_name_H-M   'P 1'
_cell_length_a   6.65031600
_cell_length_b   6.65031635
_cell_length_c   30.00000000
_cell_angle_alpha   90.00000000
_cell_angle_beta   90.00000000
_cell_angle_gamma   60.00000173
_symmetry_Int_Tables_number   1
_chemical_formula_structural   Hf3Zr4(Te3O4)2
_chemical_formula_sum   'Hf3 Zr4 Te6 O8'
_cell_volume   1149.04352707
_cell_formula_units_Z   1
loop_
 _symmetry_equiv_pos_site_id
 _symmetry_equiv_pos_as_xyz
  1  'x, y, z'
loop_
 _atom_site_type_symbol
 _atom_site_label
 _atom_site_symmetry_multiplicity
 _atom_site_fract_x
 _atom_site_fract_y
 _atom_site_fract_z
 _atom_site_occupancy
  Hf  Hf0  1  0.66666700  0.66666700  0.38057248  1
  Hf  Hf1  1  0.33333300  0.33333300  0.38422238  1
  Hf  Hf2  1  0.00000000  0.00000000  0.38469550  1
  Zr  Zr3  1  0.00000000  0.00000000  0.58856998  1
  Zr  Zr4  1  0.99980596  0.50035299  0.58799593  1
  Zr  Zr5  1  0.49984104  0.99980596  0.58799593  1
  Zr  Zr6  1  0.50035299  0.49984104  0.58799593  1
  Te  Te7  1  0.99579349  0.33812619  0.44499188  1
  Te  Te8  1  0.66714577  0.00366913  0.32110343  1
  Te  Te9  1  0.32918510  0.66714577  0.32110343  1
  Te  Te10  1  0.00366913  0.32918510  0.32110343  1
  Te  Te11  1  0.66608032  0.99579349  0.44499188  1
  Te  Te12  1  0.33812619  0.66608032  0.44499188  1
  O  O13  1  0.33333300  0.33333300  0.61938413  1
  O  O14  1  0.33412239  0.83284710  0.61965381  1
  O  O15  1  0.66666700  0.66666700  0.55657762  1
  O  O16  1  0.66758652  0.16712215  0.55689325  1
  O  O17  1  0.16529234  0.66758652  0.55689325  1
  O  O18  1  0.16712215  0.16529234  0.55689325  1
  O  O19  1  0.83302950  0.33412239  0.61965381  1
  O  O20  1  0.83284710  0.83302950  0.61965381  1
