# generated using pymatgen
data_Ti4Pd3(Se3S4)2
_symmetry_space_group_name_H-M   'P 1'
_cell_length_a   6.57446191
_cell_length_b   6.57446200
_cell_length_c   30.00000000
_cell_angle_alpha   90.00000000
_cell_angle_beta   90.00000000
_cell_angle_gamma   59.99999953
_symmetry_Int_Tables_number   1
_chemical_formula_structural   Ti4Pd3(Se3S4)2
_chemical_formula_sum   'Ti4 Pd3 Se6 S8'
_cell_volume   1122.98076422
_cell_formula_units_Z   1
loop_
 _symmetry_equiv_pos_site_id
 _symmetry_equiv_pos_as_xyz
  1  'x, y, z'
loop_
 _atom_site_type_symbol
 _atom_site_label
 _atom_site_symmetry_multiplicity
 _atom_site_fract_x
 _atom_site_fract_y
 _atom_site_fract_z
 _atom_site_occupancy
  Ti  Ti0  1  0.99935883  0.50144897  0.40028157  1
  Ti  Ti1  1  0.50144897  0.49919220  0.40028157  1
  Ti  Ti2  1  0.49919220  0.99935883  0.40028157  1
  Ti  Ti3  1  0.00000000  0.00000000  0.40535847  1
  Pd  Pd4  1  0.00000000  0.00000000  0.58709800  1
  Pd  Pd5  1  0.66666700  0.66666700  0.58952184  1
  Pd  Pd6  1  0.33333300  0.33333300  0.58736760  1
  Se  Se7  1  0.99560167  0.66614210  0.54608136  1
  Se  Se8  1  0.32854193  0.66715244  0.63074521  1
  Se  Se9  1  0.66715244  0.00430563  0.63074521  1
  Se  Se10  1  0.00430563  0.32854193  0.63074521  1
  Se  Se11  1  0.33825623  0.99560167  0.54608136  1
  Se  Se12  1  0.66614210  0.33825623  0.54608136  1
  S  S13  1  0.66431660  0.16420359  0.45252545  1
  S  S14  1  0.16488291  0.16566671  0.35166117  1
  S  S15  1  0.16566671  0.66945138  0.35166117  1
  S  S16  1  0.66945138  0.16488291  0.35166117  1
  S  S17  1  0.66666700  0.66666700  0.35047921  1
  S  S18  1  0.16420359  0.17148080  0.45252545  1
  S  S19  1  0.17148080  0.66431660  0.45252545  1
  S  S20  1  0.66666700  0.66666700  0.45154159  1
