# generated using pymatgen
data_Zr3Sn4(S3O4)2
_symmetry_space_group_name_H-M   'P 1'
_cell_length_a   6.41091813
_cell_length_b   6.41091900
_cell_length_c   30.00000000
_cell_angle_alpha   90.00000000
_cell_angle_beta   90.00000000
_cell_angle_gamma   60.00000067
_symmetry_Int_Tables_number   1
_chemical_formula_structural   Zr3Sn4(S3O4)2
_chemical_formula_sum   'Zr3 Sn4 S6 O8'
_cell_volume   1067.80613054
_cell_formula_units_Z   1
loop_
 _symmetry_equiv_pos_site_id
 _symmetry_equiv_pos_as_xyz
  1  'x, y, z'
loop_
 _atom_site_type_symbol
 _atom_site_label
 _atom_site_symmetry_multiplicity
 _atom_site_fract_x
 _atom_site_fract_y
 _atom_site_fract_z
 _atom_site_occupancy
  Zr  Zr0  1  0.66666700  0.66666700  0.40198224  1
  Zr  Zr1  1  0.33333300  0.33333300  0.40215735  1
  Zr  Zr2  1  0.00000000  0.00000000  0.40217216  1
  Sn  Sn3  1  0.00000000  0.00000000  0.58543474  1
  Sn  Sn4  1  0.99988805  0.50025827  0.58520741  1
  Sn  Sn5  1  0.49985368  0.99988805  0.58520741  1
  Sn  Sn6  1  0.50025827  0.49985368  0.58520741  1
  S  S7  1  0.33384360  0.99950253  0.44992756  1
  S  S8  1  0.66670025  0.00033119  0.35407053  1
  S  S9  1  0.33296856  0.66670025  0.35407053  1
  S  S10  1  0.00033119  0.33296856  0.35407053  1
  S  S11  1  0.99950253  0.66665387  0.44992756  1
  S  S12  1  0.66665387  0.33384360  0.44992756  1
  O  O13  1  0.33333300  0.33333300  0.61926764  1
  O  O14  1  0.33367916  0.83338825  0.61935793  1
  O  O15  1  0.66666700  0.66666700  0.55102787  1
  O  O16  1  0.66696352  0.16569754  0.55126024  1
  O  O17  1  0.16733994  0.66696352  0.55126024  1
  O  O18  1  0.16569754  0.16733994  0.55126024  1
  O  O19  1  0.83293159  0.33367916  0.61935793  1
  O  O20  1  0.83338825  0.83293159  0.61935793  1
