# generated using pymatgen
data_Sn3Pb4(Se3O4)2
_symmetry_space_group_name_H-M   'P 1'
_cell_length_a   6.73651464
_cell_length_b   6.73651500
_cell_length_c   30.00000000
_cell_angle_alpha   90.00000000
_cell_angle_beta   90.00000000
_cell_angle_gamma   60.00000316
_symmetry_Int_Tables_number   1
_chemical_formula_structural   Sn3Pb4(Se3O4)2
_chemical_formula_sum   'Sn3 Pb4 Se6 O8'
_cell_volume   1179.02344063
_cell_formula_units_Z   1
loop_
 _symmetry_equiv_pos_site_id
 _symmetry_equiv_pos_as_xyz
  1  'x, y, z'
loop_
 _atom_site_type_symbol
 _atom_site_label
 _atom_site_symmetry_multiplicity
 _atom_site_fract_x
 _atom_site_fract_y
 _atom_site_fract_z
 _atom_site_occupancy
  Sn  Sn0  1  0.66666700  0.66666700  0.39905828  1
  Sn  Sn1  1  0.33333300  0.33333300  0.39949349  1
  Sn  Sn2  1  0.00000000  0.00000000  0.39937827  1
  Pb  Pb3  1  0.00000000  0.00000000  0.58638044  1
  Pb  Pb4  1  0.99979226  0.50034644  0.58606528  1
  Pb  Pb5  1  0.49986130  0.99979226  0.58606528  1
  Pb  Pb6  1  0.50034644  0.49986130  0.58606528  1
  Se  Se7  1  0.33551115  0.99769422  0.45199374  1
  Se  Se8  1  0.66662355  0.00142467  0.34630300  1
  Se  Se9  1  0.33195178  0.66662355  0.34630300  1
  Se  Se10  1  0.00142467  0.33195178  0.34630300  1
  Se  Se11  1  0.99769422  0.66679463  0.45199374  1
  Se  Se12  1  0.66679463  0.33551115  0.45199374  1
  O  O13  1  0.33333300  0.33333300  0.62217778  1
  O  O14  1  0.33378275  0.83381039  0.62232757  1
  O  O15  1  0.66666700  0.66666700  0.54911475  1
  O  O16  1  0.66710621  0.16467230  0.54947140  1
  O  O17  1  0.16822249  0.66710621  0.54947140  1
  O  O18  1  0.16467230  0.16822249  0.54947140  1
  O  O19  1  0.83240586  0.33378275  0.62232757  1
  O  O20  1  0.83381039  0.83240586  0.62232757  1
