# generated using pymatgen
data_ZrPdS4
_symmetry_space_group_name_H-M   'P 1'
_cell_length_a   3.56240369
_cell_length_b   3.56240400
_cell_length_c   30.00000000
_cell_angle_alpha   90.00000000
_cell_angle_beta   90.00000000
_cell_angle_gamma   59.99999708
_symmetry_Int_Tables_number   1
_chemical_formula_structural   ZrPdS4
_chemical_formula_sum   'Zr1 Pd1 S4'
_cell_volume   329.71459732
_cell_formula_units_Z   1
loop_
 _symmetry_equiv_pos_site_id
 _symmetry_equiv_pos_as_xyz
  1  'x, y, z'
loop_
 _atom_site_type_symbol
 _atom_site_label
 _atom_site_symmetry_multiplicity
 _atom_site_fract_x
 _atom_site_fract_y
 _atom_site_fract_z
 _atom_site_occupancy
  Zr  Zr0  1  0.00000000  0.00000000  0.39040300  1
  Pd  Pd1  1  0.00000000  0.00000000  0.59880805  1
  S  S2  1  0.33333300  0.33333300  0.55789626  1
  S  S3  1  0.66666700  0.66666700  0.63991278  1
  S  S4  1  0.33333300  0.33333300  0.33778432  1
  S  S5  1  0.33333300  0.33333300  0.44269560  1
