# generated using pymatgen
data_Te6Mo4Pd3S8
_symmetry_space_group_name_H-M   'P 1'
_cell_length_a   6.66333600
_cell_length_b   6.66333578
_cell_length_c   30.00000000
_cell_angle_alpha   90.00000000
_cell_angle_beta   90.00000000
_cell_angle_gamma   59.99999893
_symmetry_Int_Tables_number   1
_chemical_formula_structural   Te6Mo4Pd3S8
_chemical_formula_sum   'Te6 Mo4 Pd3 S8'
_cell_volume   1153.54699985
_cell_formula_units_Z   1
loop_
 _symmetry_equiv_pos_site_id
 _symmetry_equiv_pos_as_xyz
  1  'x, y, z'
loop_
 _atom_site_type_symbol
 _atom_site_label
 _atom_site_symmetry_multiplicity
 _atom_site_fract_x
 _atom_site_fract_y
 _atom_site_fract_z
 _atom_site_occupancy
  Te  Te0  1  0.98322632  0.35014217  0.55003929  1
  Te  Te1  1  0.35014217  0.66663151  0.55003929  1
  Te  Te2  1  0.66663151  0.98322632  0.55003929  1
  Te  Te3  1  0.31882373  0.01459138  0.64989217  1
  Te  Te4  1  0.66658489  0.31882373  0.64989217  1
  Te  Te5  1  0.01459138  0.66658489  0.64989217  1
  Mo  Mo6  1  0.99979708  0.49919590  0.39283560  1
  Mo  Mo7  1  0.49919590  0.50100701  0.39283560  1
  Mo  Mo8  1  0.50100701  0.99979708  0.39283560  1
  Mo  Mo9  1  0.00000000  0.00000000  0.39299063  1
  Pd  Pd10  1  0.00000000  0.00000000  0.59753056  1
  Pd  Pd11  1  0.66666700  0.66666700  0.60420413  1
  Pd  Pd12  1  0.33333300  0.33333300  0.59762208  1
  S  S13  1  0.16724858  0.16578709  0.34248318  1
  S  S14  1  0.16578709  0.66696533  0.34248318  1
  S  S15  1  0.66696533  0.16724858  0.34248318  1
  S  S16  1  0.66666700  0.66666700  0.34240599  1
  S  S17  1  0.16889552  0.16481410  0.44314471  1
  S  S18  1  0.16481410  0.66629138  0.44314471  1
  S  S19  1  0.66629138  0.16889552  0.44314471  1
  S  S20  1  0.66666700  0.66666700  0.44328480  1
