# generated using pymatgen
data_Ti3Ni4(Se3O4)2
_symmetry_space_group_name_H-M   'P 1'
_cell_length_a   5.86036391
_cell_length_b   5.86036391
_cell_length_c   30.00000000
_cell_angle_alpha   90.00000000
_cell_angle_beta   90.00000000
_cell_angle_gamma   60.00000097
_symmetry_Int_Tables_number   1
_chemical_formula_structural   Ti3Ni4(Se3O4)2
_chemical_formula_sum   'Ti3 Ni4 Se6 O8'
_cell_volume   892.27980065
_cell_formula_units_Z   1
loop_
 _symmetry_equiv_pos_site_id
 _symmetry_equiv_pos_as_xyz
  1  'x, y, z'
loop_
 _atom_site_type_symbol
 _atom_site_label
 _atom_site_symmetry_multiplicity
 _atom_site_fract_x
 _atom_site_fract_y
 _atom_site_fract_z
 _atom_site_occupancy
  Ti  Ti0  1  0.66658177  0.66672626  0.39945148  1
  Ti  Ti1  1  0.33330509  0.33327260  0.40467738  1
  Ti  Ti2  1  0.00006790  0.00000055  0.40622861  1
  Ni  Ni3  1  0.00000155  0.99999939  0.57844608  1
  Ni  Ni4  1  0.99978937  0.49999169  0.57858438  1
  Ni  Ni5  1  0.50021918  0.99978806  0.57858486  1
  Ni  Ni6  1  0.49999383  0.50021764  0.57858465  1
  Se  Se7  1  0.33822069  0.99625659  0.45771438  1
  Se  Se8  1  0.00428444  0.66769100  0.34839167  1
  Se  Se9  1  0.66762392  0.32796970  0.34839135  1
  Se  Se10  1  0.32796143  0.00433618  0.34839166  1
  Se  Se11  1  0.99616974  0.66555019  0.45770419  1
  Se  Se12  1  0.66547804  0.33820474  0.45770489  1
  O  O13  1  0.33333447  0.33333173  0.60845168  1
  O  O14  1  0.33240471  0.83231814  0.60857528  1
  O  O15  1  0.66666762  0.66666285  0.54836523  1
  O  O16  1  0.66660743  0.16593600  0.54817995  1
  O  O17  1  0.16745988  0.66660585  0.54817983  1
  O  O18  1  0.16593128  0.16746012  0.54818106  1
  O  O19  1  0.83527947  0.33240209  0.60857471  1
  O  O20  1  0.83231819  0.83527862  0.60857468  1
