# generated using pymatgen
data_Hf3Mo4(Se3S4)2
_symmetry_space_group_name_H-M   'P 1'
_cell_length_a   6.45026300
_cell_length_b   6.45026221
_cell_length_c   30.00000000
_cell_angle_alpha   90.00000000
_cell_angle_beta   90.00000000
_cell_angle_gamma   60.00000110
_symmetry_Int_Tables_number   1
_chemical_formula_structural   Hf3Mo4(Se3S4)2
_chemical_formula_sum   'Hf3 Mo4 Se6 S8'
_cell_volume   1080.95268276
_cell_formula_units_Z   1
loop_
 _symmetry_equiv_pos_site_id
 _symmetry_equiv_pos_as_xyz
  1  'x, y, z'
loop_
 _atom_site_type_symbol
 _atom_site_label
 _atom_site_symmetry_multiplicity
 _atom_site_fract_x
 _atom_site_fract_y
 _atom_site_fract_z
 _atom_site_occupancy
  Hf  Hf0  1  0.00000000  0.00000000  0.60682803  1
  Hf  Hf1  1  0.33333300  0.33333300  0.60703662  1
  Hf  Hf2  1  0.66666700  0.66666700  0.60776292  1
  Mo  Mo3  1  0.49947233  0.50073743  0.39231980  1
  Mo  Mo4  1  0.50073743  0.99979024  0.39231980  1
  Mo  Mo5  1  0.00000000  0.00000000  0.39231948  1
  Mo  Mo6  1  0.99979024  0.49947233  0.39231980  1
  Se  Se7  1  0.66681589  0.33236848  0.66012148  1
  Se  Se8  1  0.00081563  0.66681589  0.66012148  1
  Se  Se9  1  0.66647283  0.99870703  0.55451845  1
  Se  Se10  1  0.33482014  0.66647283  0.55451845  1
  Se  Se11  1  0.99870703  0.33482014  0.55451845  1
  Se  Se12  1  0.33236848  0.00081563  0.66012148  1
  S  S13  1  0.66657398  0.16811892  0.44375049  1
  S  S14  1  0.16721480  0.16610091  0.34073135  1
  S  S15  1  0.16610091  0.66668529  0.34073135  1
  S  S16  1  0.66668529  0.16721480  0.34073135  1
  S  S17  1  0.66666700  0.66666700  0.34072262  1
  S  S18  1  0.16811892  0.16530810  0.44375049  1
  S  S19  1  0.16530810  0.66657398  0.44375049  1
  S  S20  1  0.66666700  0.66666700  0.44399765  1
