# generated using pymatgen
data_Zr7(Se3O4)2
_symmetry_space_group_name_H-M   'P 1'
_cell_length_a   6.47040739
_cell_length_b   6.47040800
_cell_length_c   30.00000000
_cell_angle_alpha   90.00000000
_cell_angle_beta   90.00000000
_cell_angle_gamma   59.99999690
_symmetry_Int_Tables_number   1
_chemical_formula_structural   Zr7(Se3O4)2
_chemical_formula_sum   'Zr7 Se6 O8'
_cell_volume   1087.71511899
_cell_formula_units_Z   1
loop_
 _symmetry_equiv_pos_site_id
 _symmetry_equiv_pos_as_xyz
  1  'x, y, z'
loop_
 _atom_site_type_symbol
 _atom_site_label
 _atom_site_symmetry_multiplicity
 _atom_site_fract_x
 _atom_site_fract_y
 _atom_site_fract_z
 _atom_site_occupancy
  Zr  Zr0  1  0.00000000  0.00000000  0.58657541  1
  Zr  Zr1  1  0.99992408  0.49997653  0.58540116  1
  Zr  Zr2  1  0.50009939  0.99992408  0.58540116  1
  Zr  Zr3  1  0.49997653  0.50009939  0.58540116  1
  Zr  Zr4  1  0.66666700  0.66666700  0.38501328  1
  Zr  Zr5  1  0.33333300  0.33333300  0.39544525  1
  Zr  Zr6  1  0.00000000  0.00000000  0.39510344  1
  Se  Se7  1  0.99103955  0.34198616  0.44756382  1
  Se  Se8  1  0.66641102  0.00921227  0.33589774  1
  Se  Se9  1  0.32437671  0.66641102  0.33589774  1
  Se  Se10  1  0.00921227  0.32437671  0.33589774  1
  Se  Se11  1  0.66697428  0.99103955  0.44756382  1
  Se  Se12  1  0.34198616  0.66697428  0.44756382  1
  O  O13  1  0.33333300  0.33333300  0.61821248  1
  O  O14  1  0.33467052  0.83263870  0.61861065  1
  O  O15  1  0.66666700  0.66666700  0.55267520  1
  O  O16  1  0.66803772  0.16678889  0.55312260  1
  O  O17  1  0.16517439  0.66803772  0.55312260  1
  O  O18  1  0.16678889  0.16517439  0.55312260  1
  O  O19  1  0.83268979  0.33467052  0.61861065  1
  O  O20  1  0.83263870  0.83268979  0.61861065  1
