# generated using pymatgen
data_SnMo(SeO)2
_symmetry_space_group_name_H-M   'P 1'
_cell_length_a   3.27183232
_cell_length_b   3.27183200
_cell_length_c   30.00000000
_cell_angle_alpha   90.00000000
_cell_angle_beta   90.00000000
_cell_angle_gamma   60.00000325
_symmetry_Int_Tables_number   1
_chemical_formula_structural   SnMo(SeO)2
_chemical_formula_sum   'Sn1 Mo1 Se2 O2'
_cell_volume   278.12109761
_cell_formula_units_Z   1
loop_
 _symmetry_equiv_pos_site_id
 _symmetry_equiv_pos_as_xyz
  1  'x, y, z'
loop_
 _atom_site_type_symbol
 _atom_site_label
 _atom_site_symmetry_multiplicity
 _atom_site_fract_x
 _atom_site_fract_y
 _atom_site_fract_z
 _atom_site_occupancy
  Sn  Sn0  1  0.00000000  0.00000000  0.58895935  1
  Mo  Mo1  1  0.00000000  0.00000000  0.38896198  1
  Se  Se2  1  0.33333300  0.33333300  0.33287114  1
  Se  Se3  1  0.33333300  0.33333300  0.44495392  1
  O  O4  1  0.33333300  0.33333300  0.55563488  1
  O  O5  1  0.66666700  0.66666700  0.62193872  1
