# generated using pymatgen
data_Ge7Te6Pd3O14
_symmetry_space_group_name_H-M   'P 1'
_cell_length_a   7.31569489
_cell_length_b   7.31569557
_cell_length_c   30.00000000
_cell_angle_alpha   90.00000000
_cell_angle_beta   90.00000000
_cell_angle_gamma   59.99999833
_symmetry_Int_Tables_number   1
_chemical_formula_structural   Ge7Te6Pd3O14
_chemical_formula_sum   'Ge7 Te6 Pd3 O14'
_cell_volume   1390.47469006
_cell_formula_units_Z   1
loop_
 _symmetry_equiv_pos_site_id
 _symmetry_equiv_pos_as_xyz
  1  'x, y, z'
loop_
 _atom_site_type_symbol
 _atom_site_label
 _atom_site_symmetry_multiplicity
 _atom_site_fract_x
 _atom_site_fract_y
 _atom_site_fract_z
 _atom_site_occupancy
  Ge  Ge0  1  0.00000000  0.00000000  0.58811038  1
  Ge  Ge1  1  0.14290031  0.57146444  0.58880984  1
  Ge  Ge2  1  0.28563525  0.14290031  0.58880984  1
  Ge  Ge3  1  0.42862031  0.71432764  0.58833372  1
  Ge  Ge4  1  0.57146444  0.28563525  0.58880984  1
  Ge  Ge5  1  0.71432764  0.85705204  0.58833372  1
  Ge  Ge6  1  0.85705204  0.42862031  0.58833372  1
  Te  Te7  1  0.33279583  0.66784642  0.44382029  1
  Te  Te8  1  0.00034606  0.66607771  0.35922233  1
  Te  Te9  1  0.66607771  0.33357623  0.35922233  1
  Te  Te10  1  0.33357623  0.00034606  0.35922233  1
  Te  Te11  1  0.66784642  0.99935776  0.44382029  1
  Te  Te12  1  0.99935776  0.33279583  0.44382029  1
  Pd  Pd13  1  0.00000000  0.00000000  0.40155705  1
  Pd  Pd14  1  0.66666700  0.66666700  0.40172470  1
  Pd  Pd15  1  0.33333300  0.33333300  0.40199034  1
  O  O16  1  0.23839741  0.95274082  0.55355037  1
  O  O17  1  0.38105352  0.52311655  0.55391342  1
  O  O18  1  0.52311655  0.09582993  0.55391342  1
  O  O19  1  0.66666700  0.66666700  0.55348271  1
  O  O20  1  0.95274082  0.80886177  0.55355037  1
  O  O21  1  0.09582993  0.38105352  0.55391342  1
  O  O22  1  0.90419101  0.61928557  0.62317469  1
  O  O23  1  0.76264076  0.04695944  0.62310050  1
  O  O24  1  0.61928557  0.47652342  0.62317469  1
  O  O25  1  0.47652342  0.90419101  0.62317469  1
  O  O26  1  0.33333300  0.33333300  0.62356933  1
  O  O27  1  0.80886177  0.23839741  0.55355037  1
  O  O28  1  0.04695944  0.19039980  0.62310050  1
  O  O29  1  0.19039980  0.76264076  0.62310050  1
