# generated using pymatgen
data_Sn3Ge4(Se3S4)2
_symmetry_space_group_name_H-M   'P 1'
_cell_length_a   6.78856187
_cell_length_b   6.78856200
_cell_length_c   30.00000000
_cell_angle_alpha   90.00000000
_cell_angle_beta   90.00000000
_cell_angle_gamma   59.99999938
_symmetry_Int_Tables_number   1
_chemical_formula_structural   Sn3Ge4(Se3S4)2
_chemical_formula_sum   'Sn3 Ge4 Se6 S8'
_cell_volume   1197.31232495
_cell_formula_units_Z   1
loop_
 _symmetry_equiv_pos_site_id
 _symmetry_equiv_pos_as_xyz
  1  'x, y, z'
loop_
 _atom_site_type_symbol
 _atom_site_label
 _atom_site_symmetry_multiplicity
 _atom_site_fract_x
 _atom_site_fract_y
 _atom_site_fract_z
 _atom_site_occupancy
  Sn  Sn0  1  0.66666700  0.66666700  0.39036828  1
  Sn  Sn1  1  0.33333300  0.33333300  0.39083408  1
  Sn  Sn2  1  0.00000000  0.00000000  0.39085877  1
  Ge  Ge3  1  0.00000000  0.00000000  0.60345014  1
  Ge  Ge4  1  0.99985955  0.49977990  0.60324410  1
  Ge  Ge5  1  0.50036055  0.99985955  0.60324410  1
  Ge  Ge6  1  0.49977990  0.50036055  0.60324410  1
  Se  Se7  1  0.33551556  0.66669393  0.44313656  1
  Se  Se8  1  0.00138521  0.66659762  0.33816892  1
  Se  Se9  1  0.66659762  0.33201717  0.33816892  1
  Se  Se10  1  0.33201717  0.00138521  0.33816892  1
  Se  Se11  1  0.99779050  0.33551556  0.44313656  1
  Se  Se12  1  0.66669393  0.99779050  0.44313656  1
  S  S13  1  0.33333300  0.33333300  0.65035904  1
  S  S14  1  0.33365486  0.83211242  0.65039475  1
  S  S15  1  0.66666700  0.66666700  0.55596491  1
  S  S16  1  0.66684666  0.16945146  0.55631126  1
  S  S17  1  0.16370288  0.66684666  0.55631126  1
  S  S18  1  0.16945146  0.16370288  0.55631126  1
  S  S19  1  0.83423172  0.33365486  0.65039475  1
  S  S20  1  0.83211242  0.83423172  0.65039475  1
