# generated using pymatgen
data_Zr3Ti4(S3O4)2
_symmetry_space_group_name_H-M   'P 1'
_cell_length_a   6.07889878
_cell_length_b   6.07889878
_cell_length_c   30.00000000
_cell_angle_alpha   90.00000000
_cell_angle_beta   90.00000000
_cell_angle_gamma   59.99999147
_symmetry_Int_Tables_number   1
_chemical_formula_structural   Zr3Ti4(S3O4)2
_chemical_formula_sum   'Zr3 Ti4 S6 O8'
_cell_volume   960.06729066
_cell_formula_units_Z   1
loop_
 _symmetry_equiv_pos_site_id
 _symmetry_equiv_pos_as_xyz
  1  'x, y, z'
loop_
 _atom_site_type_symbol
 _atom_site_label
 _atom_site_symmetry_multiplicity
 _atom_site_fract_x
 _atom_site_fract_y
 _atom_site_fract_z
 _atom_site_occupancy
  Zr  Zr0  1  0.66666700  0.66666700  0.38977225  1
  Zr  Zr1  1  0.33333300  0.33333300  0.40278217  1
  Zr  Zr2  1  0.00000000  0.00000000  0.40139784  1
  Ti  Ti3  1  0.00000000  0.00000000  0.57836525  1
  Ti  Ti4  1  0.99516032  0.49176855  0.58624213  1
  Ti  Ti5  1  0.51307113  0.99516032  0.58624213  1
  Ti  Ti6  1  0.49176855  0.51307113  0.58624213  1
  S  S7  1  0.34438112  0.98754838  0.45063695  1
  S  S8  1  0.01290588  0.66549934  0.34513490  1
  S  S9  1  0.66549934  0.32159478  0.34513490  1
  S  S10  1  0.32159478  0.01290588  0.34513490  1
  S  S11  1  0.98754838  0.66807050  0.45063695  1
  S  S12  1  0.66807050  0.34438112  0.45063695  1
  O  O13  1  0.33333300  0.33333300  0.61618134  1
  O  O14  1  0.33441215  0.83298737  0.61640884  1
  O  O15  1  0.66666700  0.66666700  0.55273377  1
  O  O16  1  0.66815508  0.16222238  0.55199930  1
  O  O17  1  0.16962354  0.66815508  0.55199930  1
  O  O18  1  0.16222238  0.16962354  0.55199930  1
  O  O19  1  0.83259948  0.33441215  0.61640884  1
  O  O20  1  0.83298737  0.83259948  0.61640884  1
