# generated using pymatgen
data_Ti4Te6Pd3S8
_symmetry_space_group_name_H-M   'P 1'
_cell_length_a   6.82258400
_cell_length_b   6.82258395
_cell_length_c   30.00000000
_cell_angle_alpha   90.00000000
_cell_angle_beta   90.00000000
_cell_angle_gamma   59.99999973
_symmetry_Int_Tables_number   1
_chemical_formula_structural   Ti4Te6Pd3S8
_chemical_formula_sum   'Ti4 Te6 Pd3 S8'
_cell_volume   1209.34347192
_cell_formula_units_Z   1
loop_
 _symmetry_equiv_pos_site_id
 _symmetry_equiv_pos_as_xyz
  1  'x, y, z'
loop_
 _atom_site_type_symbol
 _atom_site_label
 _atom_site_symmetry_multiplicity
 _atom_site_fract_x
 _atom_site_fract_y
 _atom_site_fract_z
 _atom_site_occupancy
  Ti  Ti0  1  0.99774720  0.49920926  0.40228010  1
  Ti  Ti1  1  0.49920926  0.50304353  0.40228010  1
  Ti  Ti2  1  0.50304353  0.99774720  0.40228010  1
  Ti  Ti3  1  0.00000000  0.00000000  0.40441452  1
  Te  Te4  1  0.98638838  0.34740660  0.54074401  1
  Te  Te5  1  0.34740660  0.66620502  0.54074401  1
  Te  Te6  1  0.66620502  0.98638838  0.54074401  1
  Te  Te7  1  0.31831507  0.01438434  0.63515992  1
  Te  Te8  1  0.66730059  0.31831507  0.63515992  1
  Te  Te9  1  0.01438434  0.66730059  0.63515992  1
  Pd  Pd10  1  0.00000000  0.00000000  0.58454869  1
  Pd  Pd11  1  0.66666700  0.66666700  0.59340828  1
  Pd  Pd12  1  0.33333300  0.33333300  0.58487997  1
  S  S13  1  0.16732468  0.16533033  0.35532642  1
  S  S14  1  0.16533033  0.66734599  0.35532642  1
  S  S15  1  0.66734599  0.16732468  0.35532642  1
  S  S16  1  0.66666700  0.66666700  0.35414174  1
  S  S17  1  0.16991513  0.16358922  0.45306671  1
  S  S18  1  0.16358922  0.66649664  0.45306671  1
  S  S19  1  0.66649664  0.16991513  0.45306671  1
  S  S20  1  0.66666700  0.66666700  0.45314635  1
