# generated using pymatgen
data_Te14Pd3W4
_symmetry_space_group_name_H-M   'P 1'
_cell_length_a   7.02934582
_cell_length_b   7.02934500
_cell_length_c   30.00000000
_cell_angle_alpha   90.00000000
_cell_angle_beta   90.00000000
_cell_angle_gamma   59.99999915
_symmetry_Int_Tables_number   1
_chemical_formula_structural   Te14Pd3W4
_chemical_formula_sum   'Te14 Pd3 W4'
_cell_volume   1283.75353162
_cell_formula_units_Z   1
loop_
 _symmetry_equiv_pos_site_id
 _symmetry_equiv_pos_as_xyz
  1  'x, y, z'
loop_
 _atom_site_type_symbol
 _atom_site_label
 _atom_site_symmetry_multiplicity
 _atom_site_fract_x
 _atom_site_fract_y
 _atom_site_fract_z
 _atom_site_occupancy
  Te  Te0  1  0.66666700  0.66666700  0.44319539  1
  Te  Te1  1  0.16393175  0.66643045  0.44271131  1
  Te  Te2  1  0.16963880  0.16393175  0.44271131  1
  Te  Te3  1  0.99251465  0.34193683  0.55797033  1
  Te  Te4  1  0.34193683  0.66554851  0.55797033  1
  Te  Te5  1  0.66554851  0.99251465  0.55797033  1
  Te  Te6  1  0.32681521  0.00562819  0.64847208  1
  Te  Te7  1  0.66755660  0.32681521  0.64847208  1
  Te  Te8  1  0.00562819  0.66755660  0.64847208  1
  Te  Te9  1  0.66666700  0.66666700  0.32134800  1
  Te  Te10  1  0.66643045  0.16963880  0.44271131  1
  Te  Te11  1  0.66658736  0.16813803  0.32148688  1
  Te  Te12  1  0.16527561  0.66658736  0.32148688  1
  Te  Te13  1  0.16813803  0.16527561  0.32148688  1
  Pd  Pd14  1  0.00000000  0.00000000  0.60139371  1
  Pd  Pd15  1  0.66666700  0.66666700  0.60529973  1
  Pd  Pd16  1  0.33333300  0.33333300  0.60200878  1
  W  W17  1  0.50220935  0.99933441  0.38216719  1
  W  W18  1  0.00000000  0.00000000  0.38219004  1
  W  W19  1  0.49845624  0.50220935  0.38216719  1
  W  W20  1  0.99933441  0.49845624  0.38216719  1
