# generated using pymatgen
data_Hf3Pt4(Se3O4)2
_symmetry_space_group_name_H-M   'P 1'
_cell_length_a   6.40898500
_cell_length_b   6.40898490
_cell_length_c   30.00000000
_cell_angle_alpha   90.00000000
_cell_angle_beta   90.00000000
_cell_angle_gamma   60.00000466
_symmetry_Int_Tables_number   1
_chemical_formula_structural   Hf3Pt4(Se3O4)2
_chemical_formula_sum   'Hf3 Pt4 Se6 O8'
_cell_volume   1067.16214323
_cell_formula_units_Z   1
loop_
 _symmetry_equiv_pos_site_id
 _symmetry_equiv_pos_as_xyz
  1  'x, y, z'
loop_
 _atom_site_type_symbol
 _atom_site_label
 _atom_site_symmetry_multiplicity
 _atom_site_fract_x
 _atom_site_fract_y
 _atom_site_fract_z
 _atom_site_occupancy
  Hf  Hf0  1  0.00000000  0.00000000  0.59800240  1
  Hf  Hf1  1  0.33333300  0.33333300  0.59913957  1
  Hf  Hf2  1  0.66666700  0.66666700  0.59787916  1
  Pt  Pt3  1  0.49992080  0.49993625  0.41936675  1
  Pt  Pt4  1  0.49993625  0.00014295  0.41936675  1
  Pt  Pt5  1  0.00000000  0.00000000  0.41934226  1
  Pt  Pt6  1  0.00014295  0.49992080  0.41936675  1
  Se  Se7  1  0.66791699  0.33354528  0.65161275  1
  Se  Se8  1  0.99853773  0.66791699  0.65161275  1
  Se  Se9  1  0.66495495  0.00202058  0.54539757  1
  Se  Se10  1  0.33302447  0.66495495  0.54539757  1
  Se  Se11  1  0.00202058  0.33302447  0.54539757  1
  Se  Se12  1  0.33354528  0.99853773  0.65161275  1
  O  O13  1  0.83419875  0.83251665  0.44961737  1
  O  O14  1  0.16696043  0.16632944  0.38892080  1
  O  O15  1  0.16632944  0.66671113  0.38892080  1
  O  O16  1  0.66671113  0.16696043  0.38892080  1
  O  O17  1  0.66666700  0.66666700  0.38892288  1
  O  O18  1  0.33328361  0.83419875  0.44961737  1
  O  O19  1  0.33333300  0.33333300  0.44978403  1
  O  O20  1  0.83251665  0.33328361  0.44961737  1
