# generated using pymatgen
data_Te2MoPdSe2
_symmetry_space_group_name_H-M   'P 1'
_cell_length_a   3.63920030
_cell_length_b   3.63920000
_cell_length_c   30.00000000
_cell_angle_alpha   90.00000000
_cell_angle_beta   90.00000000
_cell_angle_gamma   60.00000276
_symmetry_Int_Tables_number   1
_chemical_formula_structural   Te2MoPdSe2
_chemical_formula_sum   'Te2 Mo1 Pd1 Se2'
_cell_volume   344.08344864
_cell_formula_units_Z   1
loop_
 _symmetry_equiv_pos_site_id
 _symmetry_equiv_pos_as_xyz
  1  'x, y, z'
loop_
 _atom_site_type_symbol
 _atom_site_label
 _atom_site_symmetry_multiplicity
 _atom_site_fract_x
 _atom_site_fract_y
 _atom_site_fract_z
 _atom_site_occupancy
  Te  Te0  1  0.33333300  0.33333300  0.31783730  1
  Te  Te1  1  0.33333300  0.33333300  0.43566869  1
  Mo  Mo2  1  0.00000000  0.00000000  0.37676187  1
  Pd  Pd3  1  0.00000000  0.00000000  0.60687976  1
  Se  Se4  1  0.33333300  0.33333300  0.56137074  1
  Se  Se5  1  0.66666700  0.66666700  0.65251363  1
