# generated using pymatgen
data_Hf3(Mo2S7)2
_symmetry_space_group_name_H-M   'P 1'
_cell_length_a   6.34614630
_cell_length_b   6.34614700
_cell_length_c   30.00000000
_cell_angle_alpha   90.00000000
_cell_angle_beta   90.00000000
_cell_angle_gamma   60.00000157
_symmetry_Int_Tables_number   1
_chemical_formula_structural   Hf3(Mo2S7)2
_chemical_formula_sum   'Hf3 Mo4 S14'
_cell_volume   1046.33824814
_cell_formula_units_Z   1
loop_
 _symmetry_equiv_pos_site_id
 _symmetry_equiv_pos_as_xyz
  1  'x, y, z'
loop_
 _atom_site_type_symbol
 _atom_site_label
 _atom_site_symmetry_multiplicity
 _atom_site_fract_x
 _atom_site_fract_y
 _atom_site_fract_z
 _atom_site_occupancy
  Hf  Hf0  1  0.00000000  0.00000000  0.60179457  1
  Hf  Hf1  1  0.33333300  0.33333300  0.60197106  1
  Hf  Hf2  1  0.66666700  0.66666700  0.60241093  1
  Mo  Mo3  1  0.50051814  0.49962975  0.39298088  1
  Mo  Mo4  1  0.49962975  0.99985211  0.39298088  1
  Mo  Mo5  1  0.00000000  0.00000000  0.39294106  1
  Mo  Mo6  1  0.99985211  0.50051814  0.39298088  1
  S  S7  1  0.66678328  0.00060806  0.64976298  1
  S  S8  1  0.00060806  0.33260866  0.64976298  1
  S  S9  1  0.99911469  0.66652495  0.55451951  1
  S  S10  1  0.66664461  0.16569494  0.44499538  1
  S  S11  1  0.66652495  0.33436036  0.55451951  1
  S  S12  1  0.33436036  0.99911469  0.55451951  1
  S  S13  1  0.16638119  0.16702610  0.34079732  1
  S  S14  1  0.16702610  0.66659371  0.34079732  1
  S  S15  1  0.66659371  0.16638119  0.34079732  1
  S  S16  1  0.66666700  0.66666700  0.34082387  1
  S  S17  1  0.16569494  0.16766144  0.44499538  1
  S  S18  1  0.16766144  0.66664461  0.44499538  1
  S  S19  1  0.33260866  0.66678328  0.64976298  1
  S  S20  1  0.66666700  0.66666700  0.44523931  1
