# generated using pymatgen
data_Te6Pt3(WS2)4
_symmetry_space_group_name_H-M   'P 1'
_cell_length_a   6.66387608
_cell_length_b   6.66387608
_cell_length_c   30.00000000
_cell_angle_alpha   90.00000000
_cell_angle_beta   90.00000000
_cell_angle_gamma   59.99999917
_symmetry_Int_Tables_number   1
_chemical_formula_structural   Te6Pt3(WS2)4
_chemical_formula_sum   'Te6 Pt3 W4 S8'
_cell_volume   1153.73404468
_cell_formula_units_Z   1
loop_
 _symmetry_equiv_pos_site_id
 _symmetry_equiv_pos_as_xyz
  1  'x, y, z'
loop_
 _atom_site_type_symbol
 _atom_site_label
 _atom_site_symmetry_multiplicity
 _atom_site_fract_x
 _atom_site_fract_y
 _atom_site_fract_z
 _atom_site_occupancy
  Te  Te0  1  0.34076854  0.99306953  0.55303635  1
  Te  Te1  1  0.66616193  0.34076854  0.55303635  1
  Te  Te2  1  0.99306953  0.66616193  0.55303635  1
  Te  Te3  1  0.32728114  0.66709700  0.65190196  1
  Te  Te4  1  0.66709700  0.00562186  0.65190196  1
  Te  Te5  1  0.00562186  0.32728114  0.65190196  1
  Pt  Pt6  1  0.00000000  0.00000000  0.60123242  1
  Pt  Pt7  1  0.33333300  0.33333300  0.60151121  1
  Pt  Pt8  1  0.66666700  0.66666700  0.60420556  1
  W  W9  1  0.50101878  0.49917372  0.39088864  1
  W  W10  1  0.49917372  0.99980751  0.39088864  1
  W  W11  1  0.99980751  0.50101878  0.39088864  1
  W  W12  1  0.00000000  0.00000000  0.39087180  1
  S  S13  1  0.16583715  0.16752304  0.34028838  1
  S  S14  1  0.16752304  0.66664081  0.34028838  1
  S  S15  1  0.66664081  0.16583715  0.34028838  1
  S  S16  1  0.66666700  0.66666700  0.34033807  1
  S  S17  1  0.16463649  0.16879395  0.44128190  1
  S  S18  1  0.16879395  0.66657057  0.44128190  1
  S  S19  1  0.66657057  0.16463649  0.44128190  1
  S  S20  1  0.66666700  0.66666700  0.44162024  1
