# generated using pymatgen
data_TiTe4W
_symmetry_space_group_name_H-M   'P 1'
_cell_length_a   6.31075822
_cell_length_b   6.31075822
_cell_length_c   30.00000000
_cell_angle_alpha   90.00000000
_cell_angle_beta   90.00000000
_cell_angle_gamma   59.99999769
_symmetry_Int_Tables_number   1
_chemical_formula_structural   TiTe4W
_chemical_formula_sum   'Ti3 Te12 W3'
_cell_volume   1034.70121650
_cell_formula_units_Z   3
loop_
 _symmetry_equiv_pos_site_id
 _symmetry_equiv_pos_as_xyz
  1  'x, y, z'
loop_
 _atom_site_type_symbol
 _atom_site_label
 _atom_site_symmetry_multiplicity
 _atom_site_fract_x
 _atom_site_fract_y
 _atom_site_fract_z
 _atom_site_occupancy
  Ti  Ti0  1  0.00000000  0.00000000  0.61426642  1
  Ti  Ti1  1  0.33333300  0.33333300  0.61426642  1
  Ti  Ti2  1  0.66666700  0.66666700  0.61426642  1
  Te  Te3  1  0.00000000  0.33333300  0.44350366  1
  Te  Te4  1  0.66666700  0.00000000  0.32563431  1
  Te  Te5  1  0.33333300  0.66666700  0.32563431  1
  Te  Te6  1  0.00000000  0.33333300  0.32563431  1
  Te  Te7  1  0.33333300  0.66666700  0.44350366  1
  Te  Te8  1  0.00000000  0.66666700  0.67511398  1
  Te  Te9  1  0.33333300  0.00000000  0.67511398  1
  Te  Te10  1  0.00000000  0.66666700  0.55457997  1
  Te  Te11  1  0.66666700  0.33333300  0.55457997  1
  Te  Te12  1  0.33333300  0.00000000  0.55457997  1
  Te  Te13  1  0.66666700  0.33333300  0.67511398  1
  Te  Te14  1  0.66666700  0.00000000  0.44350366  1
  W  W15  1  0.00000000  0.00000000  0.38475266  1
  W  W16  1  0.33333300  0.33333300  0.38475266  1
  W  W17  1  0.66666700  0.66666700  0.38475266  1
