# generated using pymatgen
data_CrTe4W
_symmetry_space_group_name_H-M   'P 1'
_cell_length_a   6.07970973
_cell_length_b   6.07970973
_cell_length_c   30.00000000
_cell_angle_alpha   90.00000000
_cell_angle_beta   90.00000000
_cell_angle_gamma   60.00000290
_symmetry_Int_Tables_number   1
_chemical_formula_structural   CrTe4W
_chemical_formula_sum   'Cr3 Te12 W3'
_cell_volume   960.32357211
_cell_formula_units_Z   3
loop_
 _symmetry_equiv_pos_site_id
 _symmetry_equiv_pos_as_xyz
  1  'x, y, z'
loop_
 _atom_site_type_symbol
 _atom_site_label
 _atom_site_symmetry_multiplicity
 _atom_site_fract_x
 _atom_site_fract_y
 _atom_site_fract_z
 _atom_site_occupancy
  Cr  Cr0  1  0.00000000  0.00000000  0.61667539  1
  Cr  Cr1  1  0.33333300  0.33333300  0.61667539  1
  Cr  Cr2  1  0.66666700  0.66666700  0.61667539  1
  Te  Te3  1  0.33333300  0.00000000  0.44049214  1
  Te  Te4  1  0.00000000  0.66666700  0.31893346  1
  Te  Te5  1  0.66666700  0.33333300  0.31893346  1
  Te  Te6  1  0.33333300  0.00000000  0.31893346  1
  Te  Te7  1  0.66666700  0.33333300  0.44049214  1
  Te  Te8  1  0.66666700  0.00000000  0.67314178  1
  Te  Te9  1  0.00000000  0.33333300  0.67314178  1
  Te  Te10  1  0.66666700  0.00000000  0.56040512  1
  Te  Te11  1  0.33333300  0.66666700  0.56040512  1
  Te  Te12  1  0.00000000  0.33333300  0.56040512  1
  Te  Te13  1  0.33333300  0.66666700  0.67314178  1
  Te  Te14  1  0.00000000  0.66666700  0.44049214  1
  W  W15  1  0.00000000  0.00000000  0.37977912  1
  W  W16  1  0.33333300  0.33333300  0.37977912  1
  W  W17  1  0.66666700  0.66666700  0.37977912  1
