# generated using pymatgen
data_Ni7Te6Pd3O14
_symmetry_space_group_name_H-M   'P 1'
_cell_length_a   7.23060638
_cell_length_b   7.23060663
_cell_length_c   30.00000000
_cell_angle_alpha   90.00000000
_cell_angle_beta   90.00000000
_cell_angle_gamma   59.99999396
_symmetry_Int_Tables_number   1
_chemical_formula_structural   Ni7Te6Pd3O14
_chemical_formula_sum   'Ni7 Te6 Pd3 O14'
_cell_volume   1358.31756008
_cell_formula_units_Z   1
loop_
 _symmetry_equiv_pos_site_id
 _symmetry_equiv_pos_as_xyz
  1  'x, y, z'
loop_
 _atom_site_type_symbol
 _atom_site_label
 _atom_site_symmetry_multiplicity
 _atom_site_fract_x
 _atom_site_fract_y
 _atom_site_fract_z
 _atom_site_occupancy
  Ni  Ni0  1  0.00000000  0.00000000  0.57733752  1
  Ni  Ni1  1  0.14400528  0.57034697  0.57833911  1
  Ni  Ni2  1  0.28564775  0.14400528  0.57833911  1
  Ni  Ni3  1  0.43028779  0.71318263  0.57760769  1
  Ni  Ni4  1  0.57034697  0.28564775  0.57833911  1
  Ni  Ni5  1  0.71318263  0.85652958  0.57760769  1
  Ni  Ni6  1  0.85652958  0.43028779  0.57760769  1
  Te  Te7  1  0.33216291  0.00129314  0.46778952  1
  Te  Te8  1  0.66792493  0.99764107  0.38233611  1
  Te  Te9  1  0.33443399  0.66792493  0.38233611  1
  Te  Te10  1  0.99764107  0.33443399  0.38233611  1
  Te  Te11  1  0.66654395  0.33216291  0.46778952  1
  Te  Te12  1  0.00129314  0.66654395  0.46778952  1
  Pd  Pd13  1  0.00000000  0.00000000  0.42642451  1
  Pd  Pd14  1  0.66666700  0.66666700  0.42647368  1
  Pd  Pd15  1  0.33333300  0.33333300  0.42489803  1
  O  O16  1  0.24047896  0.95375591  0.54294852  1
  O  O17  1  0.38152611  0.52312345  0.54391123  1
  O  O18  1  0.52312345  0.09535044  0.54391123  1
  O  O19  1  0.66666700  0.66666700  0.54357313  1
  O  O20  1  0.95375591  0.80576513  0.54294852  1
  O  O21  1  0.09535044  0.38152611  0.54391123  1
  O  O22  1  0.90404349  0.61994115  0.61106460  1
  O  O23  1  0.76215402  0.04606826  0.61042970  1
  O  O24  1  0.61994115  0.47601536  0.61106460  1
  O  O25  1  0.47601536  0.90404349  0.61106460  1
  O  O26  1  0.33333300  0.33333300  0.61165269  1
  O  O27  1  0.80576513  0.24047896  0.54294852  1
  O  O28  1  0.04606826  0.19177772  0.61042970  1
  O  O29  1  0.19177772  0.76215402  0.61042970  1
