# generated using pymatgen
data_ZrTiSe4
_symmetry_space_group_name_H-M   'P 1'
_cell_length_a   6.23044700
_cell_length_b   6.23044642
_cell_length_c   30.00000000
_cell_angle_alpha   90.00000000
_cell_angle_beta   90.00000000
_cell_angle_gamma   60.00000224
_symmetry_Int_Tables_number   1
_chemical_formula_structural   ZrTiSe4
_chemical_formula_sum   'Zr3 Ti3 Se12'
_cell_volume   1008.53335917
_cell_formula_units_Z   3
loop_
 _symmetry_equiv_pos_site_id
 _symmetry_equiv_pos_as_xyz
  1  'x, y, z'
loop_
 _atom_site_type_symbol
 _atom_site_label
 _atom_site_symmetry_multiplicity
 _atom_site_fract_x
 _atom_site_fract_y
 _atom_site_fract_z
 _atom_site_occupancy
  Zr  Zr0  1  0.66666700  0.66666700  0.38404573  1
  Zr  Zr1  1  0.33333300  0.33333300  0.38404573  1
  Zr  Zr2  1  0.00000000  0.00000000  0.38404573  1
  Ti  Ti3  1  0.00000000  0.00000000  0.61366843  1
  Ti  Ti4  1  0.33333300  0.33333300  0.61366843  1
  Ti  Ti5  1  0.66666700  0.66666700  0.61366843  1
  Se  Se6  1  0.00000000  0.33333300  0.44112449  1
  Se  Se7  1  0.66666700  0.00000000  0.32665606  1
  Se  Se8  1  0.33333300  0.66666700  0.32665606  1
  Se  Se9  1  0.00000000  0.33333300  0.32665606  1
  Se  Se10  1  0.66666700  0.00000000  0.66687139  1
  Se  Se11  1  0.33333300  0.66666700  0.66687139  1
  Se  Se12  1  0.00000000  0.33333300  0.66687139  1
  Se  Se13  1  0.66666700  0.00000000  0.56111490  1
  Se  Se14  1  0.33333300  0.66666700  0.56111490  1
  Se  Se15  1  0.00000000  0.33333300  0.56111490  1
  Se  Se16  1  0.33333300  0.66666700  0.44112449  1
  Se  Se17  1  0.66666700  0.00000000  0.44112449  1
