# generated using pymatgen
data_HfTi(TeS)2
_symmetry_space_group_name_H-M   'P 1'
_cell_length_a   6.30467636
_cell_length_b   6.30467636
_cell_length_c   30.00000000
_cell_angle_alpha   90.00000000
_cell_angle_beta   90.00000000
_cell_angle_gamma   59.99999617
_symmetry_Int_Tables_number   1
_chemical_formula_structural   HfTi(TeS)2
_chemical_formula_sum   'Hf3 Ti3 Te6 S6'
_cell_volume   1032.70782020
_cell_formula_units_Z   3
loop_
 _symmetry_equiv_pos_site_id
 _symmetry_equiv_pos_as_xyz
  1  'x, y, z'
loop_
 _atom_site_type_symbol
 _atom_site_label
 _atom_site_symmetry_multiplicity
 _atom_site_fract_x
 _atom_site_fract_y
 _atom_site_fract_z
 _atom_site_occupancy
  Hf  Hf0  1  0.00000000  0.00000000  0.60268171  1
  Hf  Hf1  1  0.33333300  0.33333300  0.60268171  1
  Hf  Hf2  1  0.66666700  0.66666700  0.60268171  1
  Ti  Ti3  1  0.66666700  0.66666700  0.39056348  1
  Ti  Ti4  1  0.33333300  0.33333300  0.39056348  1
  Ti  Ti5  1  0.00000000  0.00000000  0.39056348  1
  Te  Te6  1  0.33333300  0.00000000  0.45029255  1
  Te  Te7  1  0.00000000  0.66666700  0.32939450  1
  Te  Te8  1  0.66666700  0.33333300  0.32939450  1
  Te  Te9  1  0.33333300  0.00000000  0.32939450  1
  Te  Te10  1  0.00000000  0.66666700  0.45029255  1
  Te  Te11  1  0.66666700  0.33333300  0.45029255  1
  S  S12  1  0.33333300  0.66666700  0.65354746  1
  S  S13  1  0.00000000  0.33333300  0.65354746  1
  S  S14  1  0.66666700  0.00000000  0.55139629  1
  S  S15  1  0.33333300  0.66666700  0.55139629  1
  S  S16  1  0.00000000  0.33333300  0.55139629  1
  S  S17  1  0.66666700  0.00000000  0.65354746  1
