# generated using pymatgen
data_PbW(SeO)2
_symmetry_space_group_name_H-M   'P 1'
_cell_length_a   5.81077495
_cell_length_b   5.81077495
_cell_length_c   30.00000000
_cell_angle_alpha   90.00000000
_cell_angle_beta   90.00000000
_cell_angle_gamma   59.99998915
_symmetry_Int_Tables_number   1
_chemical_formula_structural   PbW(SeO)2
_chemical_formula_sum   'Pb3 W3 Se6 O6'
_cell_volume   877.24307922
_cell_formula_units_Z   3
loop_
 _symmetry_equiv_pos_site_id
 _symmetry_equiv_pos_as_xyz
  1  'x, y, z'
loop_
 _atom_site_type_symbol
 _atom_site_label
 _atom_site_symmetry_multiplicity
 _atom_site_fract_x
 _atom_site_fract_y
 _atom_site_fract_z
 _atom_site_occupancy
  Pb  Pb0  1  0.00000000  -0.00000000  0.58798920  1
  Pb  Pb1  1  0.33333300  0.33333300  0.58798920  1
  Pb  Pb2  1  0.66666700  0.66666700  0.58798920  1
  W  W3  1  0.66666700  0.66666700  0.39213266  1
  W  W4  1  0.33333300  0.33333300  0.39213266  1
  W  W5  1  -0.00000000  -0.00000000  0.39213266  1
  Se  Se6  1  0.33333300  0.00000000  0.44720609  1
  Se  Se7  1  -0.00000000  0.66666700  0.33676093  1
  Se  Se8  1  0.66666700  0.33333300  0.33676093  1
  Se  Se9  1  0.33333300  -0.00000000  0.33676093  1
  Se  Se10  1  -0.00000000  0.66666700  0.44720609  1
  Se  Se11  1  0.66666700  0.33333300  0.44720609  1
  O  O12  1  0.66666700  0.00000000  0.62424756  1
  O  O13  1  0.33333300  0.66666700  0.62424756  1
  O  O14  1  -0.00000000  0.66666700  0.55059556  1
  O  O15  1  0.66666700  0.33333300  0.55059556  1
  O  O16  1  0.33333300  -0.00000000  0.55059556  1
  O  O17  1  0.00000000  0.33333300  0.62424756  1
