# generated using pymatgen
data_Ni4Te6W3O8
_symmetry_space_group_name_H-M   'P 1'
_cell_length_a   5.91020057
_cell_length_b   5.91020057
_cell_length_c   30.00000000
_cell_angle_alpha   90.00000000
_cell_angle_beta   90.00000000
_cell_angle_gamma   59.99999362
_symmetry_Int_Tables_number   1
_chemical_formula_structural   Ni4Te6W3O8
_chemical_formula_sum   'Ni4 Te6 W3 O8'
_cell_volume   907.52019350
_cell_formula_units_Z   1
loop_
 _symmetry_equiv_pos_site_id
 _symmetry_equiv_pos_as_xyz
  1  'x, y, z'
loop_
 _atom_site_type_symbol
 _atom_site_label
 _atom_site_symmetry_multiplicity
 _atom_site_fract_x
 _atom_site_fract_y
 _atom_site_fract_z
 _atom_site_occupancy
  Ni  Ni0  1  0.00000000  0.00000000  0.58101289  1
  Ni  Ni1  1  0.99974186  0.50009827  0.58113356  1
  Ni  Ni2  1  0.50015986  0.99974186  0.58113356  1
  Ni  Ni3  1  0.50009827  0.50015986  0.58113356  1
  Te  Te4  1  0.33504289  0.99770865  0.45593950  1
  Te  Te5  1  0.00121710  0.66643763  0.33117165  1
  Te  Te6  1  0.66643763  0.33234527  0.33117165  1
  Te  Te7  1  0.33234527  0.00121710  0.33117165  1
  Te  Te8  1  0.66724846  0.33504289  0.45593950  1
  Te  Te9  1  0.99770865  0.66724846  0.45593950  1
  W  W10  1  0.00000000  0.00000000  0.39363027  1
  W  W11  1  0.33333300  0.33333300  0.39377715  1
  W  W12  1  0.66666700  0.66666700  0.39299996  1
  O  O13  1  0.33247621  0.83291388  0.61076800  1
  O  O14  1  0.83460891  0.33247621  0.61076800  1
  O  O15  1  0.66666700  0.66666700  0.55096541  1
  O  O16  1  0.66624775  0.16507497  0.55086890  1
  O  O17  1  0.16867828  0.66624775  0.55086890  1
  O  O18  1  0.16507497  0.16867828  0.55086890  1
  O  O19  1  0.33333300  0.33333300  0.61068551  1
  O  O20  1  0.83291388  0.83460891  0.61076800  1
