# generated using pymatgen
data_TiTe2WSe2
_symmetry_space_group_name_H-M   'P 1'
_cell_length_a   6.09907600
_cell_length_b   6.09907535
_cell_length_c   30.00000000
_cell_angle_alpha   90.00000000
_cell_angle_beta   90.00000000
_cell_angle_gamma   59.99999645
_symmetry_Int_Tables_number   1
_chemical_formula_structural   TiTe2WSe2
_chemical_formula_sum   'Ti3 Te6 W3 Se6'
_cell_volume   966.45116624
_cell_formula_units_Z   3
loop_
 _symmetry_equiv_pos_site_id
 _symmetry_equiv_pos_as_xyz
  1  'x, y, z'
loop_
 _atom_site_type_symbol
 _atom_site_label
 _atom_site_symmetry_multiplicity
 _atom_site_fract_x
 _atom_site_fract_y
 _atom_site_fract_z
 _atom_site_occupancy
  Ti  Ti0  1  0.00000000  0.00000000  0.61793348  1
  Ti  Ti1  1  0.33333300  0.33333300  0.61793348  1
  Ti  Ti2  1  0.66666700  0.66666700  0.61793348  1
  Te  Te3  1  0.00000000  0.33333300  0.43628997  1
  Te  Te4  1  0.66666700  0.00000000  0.31498518  1
  Te  Te5  1  0.33333300  0.66666700  0.31498518  1
  Te  Te6  1  0.00000000  0.33333300  0.31498518  1
  Te  Te7  1  0.33333300  0.66666700  0.43628997  1
  Te  Te8  1  0.66666700  0.00000000  0.43628997  1
  W  W9  1  0.00000000  0.00000000  0.37561661  1
  W  W10  1  0.33333300  0.33333300  0.37561661  1
  W  W11  1  0.66666700  0.66666700  0.37561661  1
  Se  Se12  1  0.00000000  0.33333300  0.67156937  1
  Se  Se13  1  0.66666700  0.00000000  0.56453140  1
  Se  Se14  1  0.33333300  0.66666700  0.56453140  1
  Se  Se15  1  0.00000000  0.33333300  0.56453140  1
  Se  Se16  1  0.33333300  0.66666700  0.67156937  1
  Se  Se17  1  0.66666700  0.00000000  0.67156937  1
