# generated using pymatgen
data_HfZr(SeS)2
_symmetry_space_group_name_H-M   'P 1'
_cell_length_a   3.62447438
_cell_length_b   3.62447400
_cell_length_c   30.00000000
_cell_angle_alpha   90.00000000
_cell_angle_beta   90.00000000
_cell_angle_gamma   60.00000348
_symmetry_Int_Tables_number   1
_chemical_formula_structural   HfZr(SeS)2
_chemical_formula_sum   'Hf1 Zr1 Se2 S2'
_cell_volume   341.30442961
_cell_formula_units_Z   1
loop_
 _symmetry_equiv_pos_site_id
 _symmetry_equiv_pos_as_xyz
  1  'x, y, z'
loop_
 _atom_site_type_symbol
 _atom_site_label
 _atom_site_symmetry_multiplicity
 _atom_site_fract_x
 _atom_site_fract_y
 _atom_site_fract_z
 _atom_site_occupancy
  Hf  Hf0  1  0.00000000  0.00000000  0.61612395  1
  Zr  Zr1  1  0.00000000  0.00000000  0.38759877  1
  Se  Se2  1  0.33333300  0.33333300  0.56013881  1
  Se  Se3  1  0.33333300  0.33333300  0.67233445  1
  S  S4  1  0.33333300  0.33333300  0.33560531  1
  S  S5  1  0.33333300  0.33333300  0.43937271  1
