# generated using pymatgen
data_Cr7(Te3S4)2
_symmetry_space_group_name_H-M   'P 1'
_cell_length_a   6.05082374
_cell_length_b   6.05082400
_cell_length_c   30.00000000
_cell_angle_alpha   90.00000000
_cell_angle_beta   90.00000000
_cell_angle_gamma   59.99999859
_symmetry_Int_Tables_number   1
_chemical_formula_structural   Cr7(Te3S4)2
_chemical_formula_sum   'Cr7 Te6 S8'
_cell_volume   951.21984743
_cell_formula_units_Z   1
loop_
 _symmetry_equiv_pos_site_id
 _symmetry_equiv_pos_as_xyz
  1  'x, y, z'
loop_
 _atom_site_type_symbol
 _atom_site_label
 _atom_site_symmetry_multiplicity
 _atom_site_fract_x
 _atom_site_fract_y
 _atom_site_fract_z
 _atom_site_occupancy
  Cr  Cr0  1  0.00000000  0.00000000  0.60753759  1
  Cr  Cr1  1  0.99985771  0.49918817  0.60750279  1
  Cr  Cr2  1  0.50095412  0.99985771  0.60750279  1
  Cr  Cr3  1  0.49918817  0.50095412  0.60750279  1
  Cr  Cr4  1  0.66666700  0.66666700  0.38440413  1
  Cr  Cr5  1  0.33333300  0.33333300  0.38495863  1
  Cr  Cr6  1  0.00000000  0.00000000  0.38498909  1
  Te  Te7  1  0.99833008  0.33509722  0.44157997  1
  Te  Te8  1  0.66670542  0.00104800  0.32783897  1
  Te  Te9  1  0.33224658  0.66670542  0.32783897  1
  Te  Te10  1  0.00104800  0.33224658  0.32783897  1
  Te  Te11  1  0.66657270  0.99833008  0.44157997  1
  Te  Te12  1  0.33509722  0.66657270  0.44157997  1
  S  S13  1  0.16599494  0.66661084  0.65652438  1
  S  S14  1  0.16739522  0.16599494  0.65652438  1
  S  S15  1  0.66666700  0.66666700  0.55829722  1
  S  S16  1  0.66657895  0.16842772  0.55861291  1
  S  S17  1  0.16499433  0.66657895  0.55861291  1
  S  S18  1  0.16842772  0.16499433  0.55861291  1
  S  S19  1  0.66666700  0.66666700  0.65650329  1
  S  S20  1  0.66661084  0.16739522  0.65652438  1
