# generated using pymatgen
data_Zr3Ti4(Se3S4)2
_symmetry_space_group_name_H-M   'P 1'
_cell_length_a   6.62920034
_cell_length_b   6.62920100
_cell_length_c   30.00000000
_cell_angle_alpha   90.00000000
_cell_angle_beta   90.00000000
_cell_angle_gamma   60.00000170
_symmetry_Int_Tables_number   1
_chemical_formula_structural   Zr3Ti4(Se3S4)2
_chemical_formula_sum   'Zr3 Ti4 Se6 S8'
_cell_volume   1141.75842529
_cell_formula_units_Z   1
loop_
 _symmetry_equiv_pos_site_id
 _symmetry_equiv_pos_as_xyz
  1  'x, y, z'
loop_
 _atom_site_type_symbol
 _atom_site_label
 _atom_site_symmetry_multiplicity
 _atom_site_fract_x
 _atom_site_fract_y
 _atom_site_fract_z
 _atom_site_occupancy
  Zr  Zr0  1  0.00000000  0.00000000  0.60528829  1
  Zr  Zr1  1  0.33333300  0.33333300  0.60514578  1
  Zr  Zr2  1  0.66666700  0.66666700  0.60648050  1
  Ti  Ti3  1  0.50059927  0.49963560  0.39545575  1
  Ti  Ti4  1  0.49963560  0.99976513  0.39545575  1
  Ti  Ti5  1  0.00000000  0.00000000  0.39495934  1
  Ti  Ti6  1  0.99976513  0.50059927  0.39545575  1
  Se  Se7  1  0.66648362  0.00138208  0.65809407  1
  Se  Se8  1  0.00138208  0.33213431  0.65809407  1
  Se  Se9  1  0.99823336  0.66693725  0.55357359  1
  Se  Se10  1  0.66693725  0.33482939  0.55357359  1
  Se  Se11  1  0.33482939  0.99823336  0.55357359  1
  Se  Se12  1  0.33213431  0.66648362  0.65809407  1
  S  S13  1  0.66700311  0.16433877  0.44550231  1
  S  S14  1  0.16698538  0.16676086  0.34480944  1
  S  S15  1  0.16676086  0.66625476  0.34480944  1
  S  S16  1  0.66625476  0.16698538  0.34480944  1
  S  S17  1  0.66666700  0.66666700  0.34503073  1
  S  S18  1  0.16433877  0.16865912  0.44550231  1
  S  S19  1  0.16865912  0.66700311  0.44550231  1
  S  S20  1  0.66666700  0.66666700  0.44597286  1
