# generated using pymatgen
data_SnPtO4
_symmetry_space_group_name_H-M   'P 1'
_cell_length_a   3.18335226
_cell_length_b   3.18335200
_cell_length_c   30.00000000
_cell_angle_alpha   90.00000000
_cell_angle_beta   90.00000000
_cell_angle_gamma   60.00000269
_symmetry_Int_Tables_number   1
_chemical_formula_structural   SnPtO4
_chemical_formula_sum   'Sn1 Pt1 O4'
_cell_volume   263.28205584
_cell_formula_units_Z   1
loop_
 _symmetry_equiv_pos_site_id
 _symmetry_equiv_pos_as_xyz
  1  'x, y, z'
loop_
 _atom_site_type_symbol
 _atom_site_label
 _atom_site_symmetry_multiplicity
 _atom_site_fract_x
 _atom_site_fract_y
 _atom_site_fract_z
 _atom_site_occupancy
  Sn  Sn0  1  0.00000000  0.00000000  0.42670322  1
  Pt  Pt1  1  0.00000000  0.00000000  0.57158270  1
  O  O2  1  0.33333300  0.33333300  0.54097509  1
  O  O3  1  0.66666700  0.66666700  0.60242503  1
  O  O4  1  0.33333300  0.33333300  0.39225969  1
  O  O5  1  0.66666700  0.66666700  0.46098027  1
