# generated using pymatgen
data_TiPd(SeS)2
_symmetry_space_group_name_H-M   'P 1'
_cell_length_a   6.10194900
_cell_length_b   6.10194938
_cell_length_c   30.00000000
_cell_angle_alpha   90.00000000
_cell_angle_beta   90.00000000
_cell_angle_gamma   59.99999665
_symmetry_Int_Tables_number   1
_chemical_formula_structural   TiPd(SeS)2
_chemical_formula_sum   'Ti3 Pd3 Se6 S6'
_cell_volume   967.36205038
_cell_formula_units_Z   3
loop_
 _symmetry_equiv_pos_site_id
 _symmetry_equiv_pos_as_xyz
  1  'x, y, z'
loop_
 _atom_site_type_symbol
 _atom_site_label
 _atom_site_symmetry_multiplicity
 _atom_site_fract_x
 _atom_site_fract_y
 _atom_site_fract_z
 _atom_site_occupancy
  Ti  Ti0  1  0.66666700  0.66666700  0.40189866  1
  Ti  Ti1  1  0.33333300  0.33333300  0.40189866  1
  Ti  Ti2  1  0.00000000  0.00000000  0.40189866  1
  Pd  Pd3  1  0.00000000  0.00000000  0.58555378  1
  Pd  Pd4  1  0.33333300  0.33333300  0.58555378  1
  Pd  Pd5  1  0.66666700  0.66666700  0.58555378  1
  Se  Se6  1  0.33333300  0.00000000  0.45487209  1
  Se  Se7  1  0.00000000  0.66666700  0.34806081  1
  Se  Se8  1  0.66666700  0.33333300  0.34806081  1
  Se  Se9  1  0.33333300  0.00000000  0.34806081  1
  Se  Se10  1  0.00000000  0.66666700  0.45487209  1
  Se  Se11  1  0.66666700  0.33333300  0.45487209  1
  S  S12  1  0.66666700  0.33333300  0.62772032  1
  S  S13  1  0.33333300  0.00000000  0.62772032  1
  S  S14  1  0.66666700  0.00000000  0.54427934  1
  S  S15  1  0.33333300  0.66666700  0.54427934  1
  S  S16  1  0.00000000  0.33333300  0.54427934  1
  S  S17  1  0.00000000  0.66666700  0.62772032  1
