# generated using pymatgen
data_CrTe2PtS2
_symmetry_space_group_name_H-M   'P 1'
_cell_length_a   6.09931300
_cell_length_b   6.09931325
_cell_length_c   30.00000000
_cell_angle_alpha   90.00000000
_cell_angle_beta   90.00000000
_cell_angle_gamma   59.99999592
_symmetry_Int_Tables_number   1
_chemical_formula_structural   CrTe2PtS2
_chemical_formula_sum   'Cr3 Te6 Pt3 S6'
_cell_volume   966.52641468
_cell_formula_units_Z   3
loop_
 _symmetry_equiv_pos_site_id
 _symmetry_equiv_pos_as_xyz
  1  'x, y, z'
loop_
 _atom_site_type_symbol
 _atom_site_label
 _atom_site_symmetry_multiplicity
 _atom_site_fract_x
 _atom_site_fract_y
 _atom_site_fract_z
 _atom_site_occupancy
  Cr  Cr0  1  0.66666700  0.66666700  0.39420603  1
  Cr  Cr1  1  0.33333300  0.33333300  0.39420603  1
  Cr  Cr2  1  0.00000000  -0.00000000  0.39420603  1
  Te  Te3  1  0.00000000  0.66666700  0.45011831  1
  Te  Te4  1  0.33333300  -0.00000000  0.45011831  1
  Te  Te5  1  0.00000000  0.66666700  0.33792342  1
  Te  Te6  1  0.66666700  0.33333300  0.33792342  1
  Te  Te7  1  0.33333300  -0.00000000  0.33792342  1
  Te  Te8  1  0.66666700  0.33333300  0.45011831  1
  Pt  Pt9  1  0.00000000  0.00000000  0.58982166  1
  Pt  Pt10  1  0.66666700  0.66666700  0.58982166  1
  Pt  Pt11  1  0.33333300  0.33333300  0.58982166  1
  S  S12  1  0.33333300  0.00000000  0.63198295  1
  S  S13  1  0.66666700  -0.00000000  0.54850562  1
  S  S14  1  0.33333300  0.66666700  0.54850562  1
  S  S15  1  -0.00000000  0.33333300  0.54850562  1
  S  S16  1  0.66666700  0.33333300  0.63198295  1
  S  S17  1  -0.00000000  0.66666700  0.63198295  1
