# generated using pymatgen
data_Zr3(Te7W2)2
_symmetry_space_group_name_H-M   'P 1'
_cell_length_a   6.94499243
_cell_length_b   6.94499300
_cell_length_c   30.00000000
_cell_angle_alpha   90.00000000
_cell_angle_beta   90.00000000
_cell_angle_gamma   60.00000206
_symmetry_Int_Tables_number   1
_chemical_formula_structural   Zr3(Te7W2)2
_chemical_formula_sum   'Zr3 Te14 W4'
_cell_volume   1253.12814595
_cell_formula_units_Z   1
loop_
 _symmetry_equiv_pos_site_id
 _symmetry_equiv_pos_as_xyz
  1  'x, y, z'
loop_
 _atom_site_type_symbol
 _atom_site_label
 _atom_site_symmetry_multiplicity
 _atom_site_fract_x
 _atom_site_fract_y
 _atom_site_fract_z
 _atom_site_occupancy
  Zr  Zr0  1  0.66666700  0.66666700  0.37044275  1
  Zr  Zr1  1  0.33333300  0.33333300  0.38276599  1
  Zr  Zr2  1  0.00000000  0.00000000  0.38282279  1
  Te  Te3  1  0.66679936  0.16822750  0.68067300  1
  Te  Te4  1  0.98581805  0.34761730  0.43938690  1
  Te  Te5  1  0.66646971  0.01337679  0.31770908  1
  Te  Te6  1  0.32015350  0.66646971  0.31770908  1
  Te  Te7  1  0.01337679  0.32015350  0.31770908  1
  Te  Te8  1  0.66666700  0.66666700  0.68055099  1
  Te  Te9  1  0.34761730  0.66656465  0.43938690  1
  Te  Te10  1  0.66656465  0.98581805  0.43938690  1
  Te  Te11  1  0.16822750  0.16497414  0.68067300  1
  Te  Te12  1  0.66666700  0.66666700  0.55820177  1
  Te  Te13  1  0.66636349  0.16957343  0.55822961  1
  Te  Te14  1  0.16406408  0.66636349  0.55822961  1
  Te  Te15  1  0.16957343  0.16406408  0.55822961  1
  Te  Te16  1  0.16497414  0.66679936  0.68067300  1
  W  W17  1  0.49769432  0.50180525  0.61945502  1
  W  W18  1  0.50180525  0.00050043  0.61945502  1
  W  W19  1  0.00050043  0.49769432  0.61945502  1
  W  W20  1  0.00000000  0.00000000  0.61937288  1
