# generated using pymatgen
data_Ti4Te6W3O8
_symmetry_space_group_name_H-M   'P 1'
_cell_length_a   6.06042028
_cell_length_b   6.06042028
_cell_length_c   30.00000000
_cell_angle_alpha   90.00000000
_cell_angle_beta   90.00000000
_cell_angle_gamma   59.99999695
_symmetry_Int_Tables_number   1
_chemical_formula_structural   Ti4Te6W3O8
_chemical_formula_sum   'Ti4 Te6 W3 O8'
_cell_volume   954.23943122
_cell_formula_units_Z   1
loop_
 _symmetry_equiv_pos_site_id
 _symmetry_equiv_pos_as_xyz
  1  'x, y, z'
loop_
 _atom_site_type_symbol
 _atom_site_label
 _atom_site_symmetry_multiplicity
 _atom_site_fract_x
 _atom_site_fract_y
 _atom_site_fract_z
 _atom_site_occupancy
  Ti  Ti0  1  0.00000000  0.00000000  0.58338730  1
  Ti  Ti1  1  0.99606885  0.49790074  0.58962874  1
  Ti  Ti2  1  0.50603041  0.99606885  0.58962874  1
  Ti  Ti3  1  0.49790074  0.50603041  0.58962874  1
  Te  Te4  1  0.33438295  0.99914985  0.44605965  1
  Te  Te5  1  0.00035851  0.66671188  0.32412967  1
  Te  Te6  1  0.66671188  0.33292961  0.32412967  1
  Te  Te7  1  0.33292961  0.00035851  0.32412967  1
  Te  Te8  1  0.66646720  0.33438295  0.44605965  1
  Te  Te9  1  0.99914985  0.66646720  0.44605965  1
  W  W10  1  0.00000000  0.00000000  0.38515646  1
  W  W11  1  0.33333300  0.33333300  0.38513441  1
  W  W12  1  0.66666700  0.66666700  0.38491008  1
  O  O13  1  0.33456589  0.83280434  0.62002698  1
  O  O14  1  0.83262876  0.33456589  0.62002698  1
  O  O15  1  0.66666700  0.66666700  0.55567314  1
  O  O16  1  0.66773343  0.16451856  0.55538251  1
  O  O17  1  0.16774901  0.66773343  0.55538251  1
  O  O18  1  0.16451856  0.16774901  0.55538251  1
  O  O19  1  0.33333300  0.33333300  0.61998798  1
  O  O20  1  0.83280434  0.83262876  0.62002698  1
