# generated using pymatgen
data_ZrTeSe
_symmetry_space_group_name_H-M   'P 1'
_cell_length_a   3.85716262
_cell_length_b   3.85716300
_cell_length_c   30.00000000
_cell_angle_alpha   90.00000000
_cell_angle_beta   90.00000000
_cell_angle_gamma   60.00000536
_symmetry_Int_Tables_number   1
_chemical_formula_structural   ZrTeSe
_chemical_formula_sum   'Zr2 Te2 Se2'
_cell_volume   386.53413427
_cell_formula_units_Z   2
loop_
 _symmetry_equiv_pos_site_id
 _symmetry_equiv_pos_as_xyz
  1  'x, y, z'
loop_
 _atom_site_type_symbol
 _atom_site_label
 _atom_site_symmetry_multiplicity
 _atom_site_fract_x
 _atom_site_fract_y
 _atom_site_fract_z
 _atom_site_occupancy
  Zr  Zr0  1  0.00000000  0.00000000  0.61432849  1
  Zr  Zr1  1  0.00000000  0.00000000  0.37641148  1
  Te  Te2  1  0.33333300  0.33333300  0.31340515  1
  Te  Te3  1  0.33333300  0.33333300  0.43885207  1
  Se  Se4  1  0.33333300  0.33333300  0.56257968  1
  Se  Se5  1  0.66666700  0.66666700  0.66618614  1
