# generated using pymatgen
data_Ti4Te6Pt3S8
_symmetry_space_group_name_H-M   'P 1'
_cell_length_a   6.82128603
_cell_length_b   6.82128603
_cell_length_c   30.00000000
_cell_angle_alpha   90.00000000
_cell_angle_beta   90.00000000
_cell_angle_gamma   59.99999968
_symmetry_Int_Tables_number   1
_chemical_formula_structural   Ti4Te6Pt3S8
_chemical_formula_sum   'Ti4 Te6 Pt3 S8'
_cell_volume   1208.88337996
_cell_formula_units_Z   1
loop_
 _symmetry_equiv_pos_site_id
 _symmetry_equiv_pos_as_xyz
  1  'x, y, z'
loop_
 _atom_site_type_symbol
 _atom_site_label
 _atom_site_symmetry_multiplicity
 _atom_site_fract_x
 _atom_site_fract_y
 _atom_site_fract_z
 _atom_site_occupancy
  Ti  Ti0  1  0.99905716  0.50232780  0.40057040  1
  Ti  Ti1  1  0.50232780  0.49861504  0.40057040  1
  Ti  Ti2  1  0.49861504  0.99905716  0.40057040  1
  Ti  Ti3  1  0.00000000  0.00000000  0.40393111  1
  Te  Te4  1  0.34569322  0.98845193  0.54290486  1
  Te  Te5  1  0.66585485  0.34569322  0.54290486  1
  Te  Te6  1  0.98845193  0.66585485  0.54290486  1
  Te  Te7  1  0.32143054  0.66744203  0.63775290  1
  Te  Te8  1  0.66744203  0.01112742  0.63775290  1
  Te  Te9  1  0.01112742  0.32143054  0.63775290  1
  Pt  Pt10  1  0.00000000  0.00000000  0.58735218  1
  Pt  Pt11  1  0.66666700  0.66666700  0.59422876  1
  Pt  Pt12  1  0.33333300  0.33333300  0.58781543  1
  S  S13  1  0.16538687  0.16653070  0.35358461  1
  S  S14  1  0.16653070  0.66808343  0.35358461  1
  S  S15  1  0.66808343  0.16538687  0.35358461  1
  S  S16  1  0.66666700  0.66666700  0.35253677  1
  S  S17  1  0.15945537  0.17455770  0.45167344  1
  S  S18  1  0.17455770  0.66598793  0.45167344  1
  S  S19  1  0.66598793  0.15945537  0.45167344  1
  S  S20  1  0.66666700  0.66666700  0.45146812  1
