# generated using pymatgen
data_Te2MoPtSe2
_symmetry_space_group_name_H-M   'P 1'
_cell_length_a   6.31610355
_cell_length_b   6.31610355
_cell_length_c   30.00000000
_cell_angle_alpha   90.00000000
_cell_angle_beta   90.00000000
_cell_angle_gamma   60.00000469
_symmetry_Int_Tables_number   1
_chemical_formula_structural   Te2MoPtSe2
_chemical_formula_sum   'Te6 Mo3 Pt3 Se6'
_cell_volume   1036.45485499
_cell_formula_units_Z   3
loop_
 _symmetry_equiv_pos_site_id
 _symmetry_equiv_pos_as_xyz
  1  'x, y, z'
loop_
 _atom_site_type_symbol
 _atom_site_label
 _atom_site_symmetry_multiplicity
 _atom_site_fract_x
 _atom_site_fract_y
 _atom_site_fract_z
 _atom_site_occupancy
  Te  Te0  1  0.66666700  0.00000000  0.44760515  1
  Te  Te1  1  0.00000000  0.33333300  0.44760515  1
  Te  Te2  1  0.66666700  0.00000000  0.33009087  1
  Te  Te3  1  0.33333300  0.66666700  0.33009087  1
  Te  Te4  1  0.00000000  0.33333300  0.33009087  1
  Te  Te5  1  0.33333300  0.66666700  0.44760515  1
  Mo  Mo6  1  0.66666700  0.66666700  0.38895063  1
  Mo  Mo7  1  0.33333300  0.33333300  0.38895063  1
  Mo  Mo8  1  0.00000000  0.00000000  0.38895063  1
  Pt  Pt9  1  0.00000000  0.00000000  0.59439623  1
  Pt  Pt10  1  0.66666700  0.66666700  0.59439623  1
  Pt  Pt11  1  0.33333300  0.33333300  0.59439623  1
  Se  Se12  1  0.33333300  0.66666700  0.64025008  1
  Se  Se13  1  0.00000000  0.66666700  0.54938405  1
  Se  Se14  1  0.66666700  0.33333300  0.54938405  1
  Se  Se15  1  0.33333300  0.00000000  0.54938405  1
  Se  Se16  1  0.66666700  0.00000000  0.64025008  1
  Se  Se17  1  0.00000000  0.33333300  0.64025008  1
