# generated using pymatgen
data_HfGe(SO)2
_symmetry_space_group_name_H-M   'P 1'
_cell_length_a   5.79703425
_cell_length_b   5.79703425
_cell_length_c   30.00000000
_cell_angle_alpha   90.00000000
_cell_angle_beta   90.00000000
_cell_angle_gamma   59.99999714
_symmetry_Int_Tables_number   1
_chemical_formula_structural   HfGe(SO)2
_chemical_formula_sum   'Hf3 Ge3 S6 O6'
_cell_volume   873.09923268
_cell_formula_units_Z   3
loop_
 _symmetry_equiv_pos_site_id
 _symmetry_equiv_pos_as_xyz
  1  'x, y, z'
loop_
 _atom_site_type_symbol
 _atom_site_label
 _atom_site_symmetry_multiplicity
 _atom_site_fract_x
 _atom_site_fract_y
 _atom_site_fract_z
 _atom_site_occupancy
  Hf  Hf0  1  0.66666700  0.66666700  0.41181750  1
  Hf  Hf1  1  0.33333300  0.33333300  0.41181750  1
  Hf  Hf2  1  0.00000000  0.00000000  0.41181750  1
  Ge  Ge3  1  0.00000000  0.00000000  0.60234462  1
  Ge  Ge4  1  0.33333300  0.33333300  0.60234462  1
  Ge  Ge5  1  0.66666700  0.66666700  0.60234462  1
  S  S6  1  0.66666700  0.00000000  0.64982228  1
  S  S7  1  0.00000000  0.33333300  0.64982228  1
  S  S8  1  0.00000000  0.66666700  0.55487361  1
  S  S9  1  0.66666700  0.33333300  0.55487361  1
  S  S10  1  0.33333300  0.00000000  0.55487361  1
  S  S11  1  0.33333300  0.66666700  0.64982228  1
  O  O12  1  0.66666700  0.33333300  0.44222308  1
  O  O13  1  0.00000000  0.33333300  0.38130191  1
  O  O14  1  0.33333300  0.66666700  0.38130191  1
  O  O15  1  0.66666700  0.00000000  0.38130191  1
  O  O16  1  0.33333300  0.00000000  0.44222308  1
  O  O17  1  0.00000000  0.66666700  0.44222308  1
