# generated using pymatgen
data_Hf7(Te3S4)2
_symmetry_space_group_name_H-M   'P 1'
_cell_length_a   6.92878900
_cell_length_b   6.92878900
_cell_length_c   30.00000000
_cell_angle_alpha   90.00000000
_cell_angle_beta   90.00000000
_cell_angle_gamma   59.99999521
_symmetry_Int_Tables_number   1
_chemical_formula_structural   Hf7(Te3S4)2
_chemical_formula_sum   'Hf7 Te6 S8'
_cell_volume   1247.28740688
_cell_formula_units_Z   1
loop_
 _symmetry_equiv_pos_site_id
 _symmetry_equiv_pos_as_xyz
  1  'x, y, z'
loop_
 _atom_site_type_symbol
 _atom_site_label
 _atom_site_symmetry_multiplicity
 _atom_site_fract_x
 _atom_site_fract_y
 _atom_site_fract_z
 _atom_site_occupancy
  Hf  Hf0  1  0.00000000  0.00000000  0.60348434  1
  Hf  Hf1  1  0.99968461  0.50067081  0.60904756  1
  Hf  Hf2  1  0.49964458  0.99968461  0.60904756  1
  Hf  Hf3  1  0.50067081  0.49964458  0.60904756  1
  Hf  Hf4  1  0.66666700  0.66666700  0.37735818  1
  Hf  Hf5  1  0.33333300  0.33333300  0.38801519  1
  Hf  Hf6  1  0.00000000  0.00000000  0.38696193  1
  Te  Te7  1  0.34366031  0.98828091  0.44421885  1
  Te  Te8  1  0.01063411  0.66559082  0.32362981  1
  Te  Te9  1  0.66559082  0.32377507  0.32362981  1
  Te  Te10  1  0.32377507  0.01063411  0.32362981  1
  Te  Te11  1  0.98828091  0.66805878  0.44421885  1
  Te  Te12  1  0.66805878  0.34366031  0.44421885  1
  S  S13  1  0.16430025  0.67130749  0.65974374  1
  S  S14  1  0.16439326  0.16430025  0.65974374  1
  S  S15  1  0.66666700  0.66666700  0.55629351  1
  S  S16  1  0.66174835  0.16571016  0.55483040  1
  S  S17  1  0.17254249  0.66174835  0.55483040  1
  S  S18  1  0.16571016  0.17254249  0.55483040  1
  S  S19  1  0.66666700  0.66666700  0.66136874  1
  S  S20  1  0.67130749  0.16439326  0.65974374  1
