# generated using pymatgen
data_Hf4W7(Se4O7)2
_symmetry_space_group_name_H-M   'P 1'
_cell_length_a   7.51820790
_cell_length_b   7.51820800
_cell_length_c   30.00000000
_cell_angle_alpha   90.00000000
_cell_angle_beta   90.00000000
_cell_angle_gamma   59.99999955
_symmetry_Int_Tables_number   1
_chemical_formula_structural   Hf4W7(Se4O7)2
_chemical_formula_sum   'Hf4 W7 Se8 O14'
_cell_volume   1468.52232124
_cell_formula_units_Z   1
loop_
 _symmetry_equiv_pos_site_id
 _symmetry_equiv_pos_as_xyz
  1  'x, y, z'
loop_
 _atom_site_type_symbol
 _atom_site_label
 _atom_site_symmetry_multiplicity
 _atom_site_fract_x
 _atom_site_fract_y
 _atom_site_fract_z
 _atom_site_occupancy
  Hf  Hf0  1  0.00000000  0.00000000  0.60014391  1
  Hf  Hf1  1  0.00017780  0.50033907  0.60037901  1
  Hf  Hf2  1  0.49948313  0.00017780  0.60037901  1
  Hf  Hf3  1  0.50033907  0.49948313  0.60037901  1
  W  W4  1  0.85726602  0.42856905  0.40633230  1
  W  W5  1  0.71416494  0.85726602  0.40633230  1
  W  W6  1  0.42856905  0.71416494  0.40633230  1
  W  W7  1  0.28564187  0.14284647  0.40651229  1
  W  W8  1  0.14284647  0.57151166  0.40651229  1
  W  W9  1  0.00000000  0.00000000  0.40655976  1
  W  W10  1  0.57151166  0.28564187  0.40651229  1
  Se  Se11  1  0.83358685  0.33296657  0.65266274  1
  Se  Se12  1  0.33333300  0.33333300  0.65284842  1
  Se  Se13  1  0.33296657  0.83344558  0.65266274  1
  Se  Se14  1  0.66666700  0.66666700  0.54858196  1
  Se  Se15  1  0.66638979  0.16684534  0.54808822  1
  Se  Se16  1  0.16676587  0.66638979  0.54808822  1
  Se  Se17  1  0.16684534  0.16676587  0.54808822  1
  Se  Se18  1  0.83344558  0.83358685  0.65266274  1
  O  O19  1  0.80976420  0.23856257  0.44771186  1
  O  O20  1  0.66666700  0.66666700  0.44732434  1
  O  O21  1  0.52363135  0.09492222  0.44769988  1
  O  O22  1  0.38144642  0.52363135  0.44769988  1
  O  O23  1  0.23856257  0.95167324  0.44771186  1
  O  O24  1  0.09552486  0.38092518  0.36520121  1
  O  O25  1  0.52354996  0.09552486  0.36520121  1
  O  O26  1  0.80967473  0.23780075  0.36522002  1
  O  O27  1  0.66666700  0.66666700  0.36500803  1
  O  O28  1  0.38092518  0.52354996  0.36520121  1
  O  O29  1  0.23780075  0.95252453  0.36522002  1
  O  O30  1  0.95167324  0.80976420  0.44771186  1
  O  O31  1  0.95252453  0.80967473  0.36522002  1
  O  O32  1  0.09492222  0.38144642  0.44769988  1
