# generated using pymatgen
data_Hf3(W2Se7)2
_symmetry_space_group_name_H-M   'P 1'
_cell_length_a   6.50388060
_cell_length_b   6.50388100
_cell_length_c   30.00000000
_cell_angle_alpha   90.00000000
_cell_angle_beta   90.00000000
_cell_angle_gamma   60.00000307
_symmetry_Int_Tables_number   1
_chemical_formula_structural   Hf3(W2Se7)2
_chemical_formula_sum   'Hf3 W4 Se14'
_cell_volume   1098.99836500
_cell_formula_units_Z   1
loop_
 _symmetry_equiv_pos_site_id
 _symmetry_equiv_pos_as_xyz
  1  'x, y, z'
loop_
 _atom_site_type_symbol
 _atom_site_label
 _atom_site_symmetry_multiplicity
 _atom_site_fract_x
 _atom_site_fract_y
 _atom_site_fract_z
 _atom_site_occupancy
  Hf  Hf0  1  0.00000000  0.00000000  0.60855564  1
  Hf  Hf1  1  0.33333300  0.33333300  0.60914676  1
  Hf  Hf2  1  0.66666700  0.66666700  0.61692668  1
  W  W3  1  0.49935020  0.50095760  0.38782590  1
  W  W4  1  0.50095760  0.99969220  0.38782590  1
  W  W5  1  0.00000000  0.00000000  0.38782303  1
  W  W6  1  0.99969220  0.49935020  0.38782590  1
  Se  Se7  1  0.32713485  0.66682905  0.66657466  1
  Se  Se8  1  0.66682905  0.00603610  0.66657466  1
  Se  Se9  1  0.66616253  0.99374013  0.55653408  1
  Se  Se10  1  0.66647102  0.16817040  0.44436569  1
  Se  Se11  1  0.34009734  0.66616253  0.55653408  1
  Se  Se12  1  0.99374013  0.34009734  0.55653408  1
  Se  Se13  1  0.16726410  0.16611508  0.33120775  1
  Se  Se14  1  0.16611508  0.66662182  0.33120775  1
  Se  Se15  1  0.66662182  0.16726410  0.33120775  1
  Se  Se16  1  0.66666700  0.66666700  0.33116039  1
  Se  Se17  1  0.16817040  0.16535958  0.44436569  1
  Se  Se18  1  0.16535958  0.66647102  0.44436569  1
  Se  Se19  1  0.00603610  0.32713485  0.66657466  1
  Se  Se20  1  0.66666700  0.66666700  0.44463828  1
