# generated using pymatgen
data_Mo4Pt3(S3O4)2
_symmetry_space_group_name_H-M   'P 1'
_cell_length_a   5.91309400
_cell_length_b   5.91309346
_cell_length_c   30.00000000
_cell_angle_alpha   90.00000000
_cell_angle_beta   90.00000000
_cell_angle_gamma   59.99999700
_symmetry_Int_Tables_number   1
_chemical_formula_structural   Mo4Pt3(S3O4)2
_chemical_formula_sum   'Mo4 Pt3 S6 O8'
_cell_volume   908.40894062
_cell_formula_units_Z   1
loop_
 _symmetry_equiv_pos_site_id
 _symmetry_equiv_pos_as_xyz
  1  'x, y, z'
loop_
 _atom_site_type_symbol
 _atom_site_label
 _atom_site_symmetry_multiplicity
 _atom_site_fract_x
 _atom_site_fract_y
 _atom_site_fract_z
 _atom_site_occupancy
  Mo  Mo0  1  0.99992459  0.49975646  0.40840832  1
  Mo  Mo1  1  0.49975646  0.50031896  0.40840832  1
  Mo  Mo2  1  0.50031896  0.99992459  0.40840832  1
  Mo  Mo3  1  0.00000000  0.00000000  0.40837723  1
  Pt  Pt4  1  0.00000000  0.00000000  0.58895214  1
  Pt  Pt5  1  0.66666700  0.66666700  0.58961223  1
  Pt  Pt6  1  0.33333300  0.33333300  0.58899014  1
  S  S7  1  0.66658817  0.99773773  0.54551612  1
  S  S8  1  0.33171430  0.00155985  0.63320502  1
  S  S9  1  0.66672584  0.33171430  0.63320502  1
  S  S10  1  0.00155985  0.66672584  0.63320502  1
  S  S11  1  0.99773773  0.33567410  0.54551612  1
  S  S12  1  0.33567410  0.66658817  0.54551612  1
  O  O13  1  0.66662817  0.16830659  0.44842073  1
  O  O14  1  0.16686312  0.16643845  0.36832936  1
  O  O15  1  0.16643845  0.66669942  0.36832936  1
  O  O16  1  0.66669942  0.16686312  0.36832936  1
  O  O17  1  0.66666700  0.66666700  0.36838431  1
  O  O18  1  0.16830659  0.16506624  0.44842073  1
  O  O19  1  0.16506624  0.66662817  0.44842073  1
  O  O20  1  0.66666700  0.66666700  0.44858428  1
