# generated using pymatgen
data_PdPtO4
_symmetry_space_group_name_H-M   'P 1'
_cell_length_a   3.11830668
_cell_length_b   3.11830600
_cell_length_c   30.00000000
_cell_angle_alpha   90.00000000
_cell_angle_beta   90.00000000
_cell_angle_gamma   60.00000723
_symmetry_Int_Tables_number   1
_chemical_formula_structural   PdPtO4
_chemical_formula_sum   'Pd1 Pt1 O4'
_cell_volume   252.63264771
_cell_formula_units_Z   1
loop_
 _symmetry_equiv_pos_site_id
 _symmetry_equiv_pos_as_xyz
  1  'x, y, z'
loop_
 _atom_site_type_symbol
 _atom_site_label
 _atom_site_symmetry_multiplicity
 _atom_site_fract_x
 _atom_site_fract_y
 _atom_site_fract_z
 _atom_site_occupancy
  Pd  Pd0  1  0.00000000  0.00000000  0.56898551  1
  Pt  Pt1  1  0.00000000  0.00000000  0.43194305  1
  O  O2  1  0.33333300  0.33333300  0.53744123  1
  O  O3  1  0.66666700  0.66666700  0.60082545  1
  O  O4  1  0.33333300  0.33333300  0.39973272  1
  O  O5  1  0.66666700  0.66666700  0.46382403  1
