# generated using pymatgen
data_Ti3Cr4(Te3Se4)2
_symmetry_space_group_name_H-M   'P 1'
_cell_length_a   6.44646800
_cell_length_b   6.44646795
_cell_length_c   30.00000000
_cell_angle_alpha   90.00000000
_cell_angle_beta   90.00000000
_cell_angle_gamma   59.99999977
_symmetry_Int_Tables_number   1
_chemical_formula_structural   Ti3Cr4(Te3Se4)2
_chemical_formula_sum   'Ti3 Cr4 Te6 Se8'
_cell_volume   1079.68121348
_cell_formula_units_Z   1
loop_
 _symmetry_equiv_pos_site_id
 _symmetry_equiv_pos_as_xyz
  1  'x, y, z'
loop_
 _atom_site_type_symbol
 _atom_site_label
 _atom_site_symmetry_multiplicity
 _atom_site_fract_x
 _atom_site_fract_y
 _atom_site_fract_z
 _atom_site_occupancy
  Ti  Ti0  1  0.66666700  0.66666700  0.38023163  1
  Ti  Ti1  1  0.33333300  0.33333300  0.38313351  1
  Ti  Ti2  1  0.00000000  0.00000000  0.38383055  1
  Cr  Cr3  1  0.00000000  0.00000000  0.61062097  1
  Cr  Cr4  1  0.99970676  0.49890889  0.61064734  1
  Cr  Cr5  1  0.50138435  0.99970676  0.61064734  1
  Cr  Cr6  1  0.49890889  0.50138435  0.61064734  1
  Te  Te7  1  0.99633555  0.33771608  0.44134980  1
  Te  Te8  1  0.66724012  0.00274402  0.32267064  1
  Te  Te9  1  0.33001586  0.66724012  0.32267064  1
  Te  Te10  1  0.00274402  0.33001586  0.32267064  1
  Te  Te11  1  0.66594837  0.99633555  0.44134980  1
  Te  Te12  1  0.33771608  0.66594837  0.44134980  1
  Se  Se13  1  0.16579407  0.66672721  0.66273598  1
  Se  Se14  1  0.16747972  0.16579407  0.66273598  1
  Se  Se15  1  0.66666700  0.66666700  0.55843625  1
  Se  Se16  1  0.66641862  0.16886253  0.55870911  1
  Se  Se17  1  0.16471985  0.66641862  0.55870911  1
  Se  Se18  1  0.16886253  0.16471985  0.55870911  1
  Se  Se19  1  0.66666700  0.66666700  0.66277145  1
  Se  Se20  1  0.66672721  0.16747972  0.66273598  1
