# generated using pymatgen
data_Zr3Ni7(Te3O7)2
_symmetry_space_group_name_H-M   'P 1'
_cell_length_a   7.14625380
_cell_length_b   7.14625354
_cell_length_c   30.00000000
_cell_angle_alpha   90.00000000
_cell_angle_beta   90.00000000
_cell_angle_gamma   60.00000189
_symmetry_Int_Tables_number   1
_chemical_formula_structural   Zr3Ni7(Te3O7)2
_chemical_formula_sum   'Zr3 Ni7 Te6 O14'
_cell_volume   1326.81004495
_cell_formula_units_Z   1
loop_
 _symmetry_equiv_pos_site_id
 _symmetry_equiv_pos_as_xyz
  1  'x, y, z'
loop_
 _atom_site_type_symbol
 _atom_site_label
 _atom_site_symmetry_multiplicity
 _atom_site_fract_x
 _atom_site_fract_y
 _atom_site_fract_z
 _atom_site_occupancy
  Zr  Zr0  1  0.66666700  0.66666700  0.40267473  1
  Zr  Zr1  1  0.33333300  0.33333300  0.39096469  1
  Zr  Zr2  1  0.00000000  0.00000000  0.40300682  1
  Ni  Ni3  1  0.00000000  0.00000000  0.58275783  1
  Ni  Ni4  1  0.14322222  0.57123345  0.58215974  1
  Ni  Ni5  1  0.28554432  0.14322222  0.58215974  1
  Ni  Ni6  1  0.42949185  0.71347743  0.58209711  1
  Ni  Ni7  1  0.57123345  0.28554432  0.58215974  1
  Ni  Ni8  1  0.71347743  0.85703072  0.58209711  1
  Ni  Ni9  1  0.85703072  0.42949185  0.58209711  1
  Te  Te10  1  0.33368086  0.00760517  0.45738400  1
  Te  Te11  1  0.99165533  0.67511031  0.33859640  1
  Te  Te12  1  0.67511031  0.33323437  0.33859640  1
  Te  Te13  1  0.33323437  0.99165533  0.33859640  1
  Te  Te14  1  0.00760517  0.65871397  0.45738400  1
  Te  Te15  1  0.65871397  0.33368086  0.45738400  1
  O  O16  1  0.33333300  0.33333300  0.61560118  1
  O  O17  1  0.47559238  0.90437440  0.61565088  1
  O  O18  1  0.62003321  0.47559238  0.61565088  1
  O  O19  1  0.75945066  0.04787409  0.61574810  1
  O  O20  1  0.90437440  0.62003321  0.61565088  1
  O  O21  1  0.04787409  0.19267524  0.61574810  1
  O  O22  1  0.09525007  0.38096963  0.54815724  1
  O  O23  1  0.95226977  0.80982655  0.54849780  1
  O  O24  1  0.80982655  0.23790368  0.54849780  1
  O  O25  1  0.66666700  0.66666700  0.54813690  1
  O  O26  1  0.52378030  0.09525007  0.54815724  1
  O  O27  1  0.38096963  0.52378030  0.54815724  1
  O  O28  1  0.23790368  0.95226977  0.54849780  1
  O  O29  1  0.19267524  0.75945066  0.61574810  1
