# generated using pymatgen
data_Hf3(Cr2S7)2
_symmetry_space_group_name_H-M   'P 1'
_cell_length_a   6.11394500
_cell_length_b   6.11394552
_cell_length_c   30.00000000
_cell_angle_alpha   90.00000000
_cell_angle_beta   90.00000000
_cell_angle_gamma   59.99999741
_symmetry_Int_Tables_number   1
_chemical_formula_structural   Hf3(Cr2S7)2
_chemical_formula_sum   'Hf3 Cr4 S14'
_cell_volume   971.16934897
_cell_formula_units_Z   1
loop_
 _symmetry_equiv_pos_site_id
 _symmetry_equiv_pos_as_xyz
  1  'x, y, z'
loop_
 _atom_site_type_symbol
 _atom_site_label
 _atom_site_symmetry_multiplicity
 _atom_site_fract_x
 _atom_site_fract_y
 _atom_site_fract_z
 _atom_site_occupancy
  Hf  Hf0  1  0.66666700  0.66666700  0.38768619  1
  Hf  Hf1  1  0.33333300  0.33333300  0.39588962  1
  Hf  Hf2  1  0.00000000  0.00000000  0.39687241  1
  Cr  Cr3  1  0.00000000  0.00000000  0.60442754  1
  Cr  Cr4  1  0.99980499  0.49948890  0.60437206  1
  Cr  Cr5  1  0.50070611  0.99980499  0.60437206  1
  Cr  Cr6  1  0.49948890  0.50070611  0.60437206  1
  S  S7  1  0.99321532  0.34084776  0.44542639  1
  S  S8  1  0.66716100  0.00698063  0.34141815  1
  S  S9  1  0.32585838  0.66716100  0.34141815  1
  S  S10  1  0.00698063  0.32585838  0.34141815  1
  S  S11  1  0.66650751  0.16711932  0.65313228  1
  S  S12  1  0.34084776  0.66593692  0.44542639  1
  S  S13  1  0.16637417  0.66650751  0.65313228  1
  S  S14  1  0.16711932  0.16637417  0.65313228  1
  S  S15  1  0.66666700  0.66666700  0.55554692  1
  S  S16  1  0.66669036  0.16787762  0.55579283  1
  S  S17  1  0.16543303  0.66669036  0.55579283  1
  S  S18  1  0.16787762  0.16543303  0.55579283  1
  S  S19  1  0.66666700  0.66666700  0.65311916  1
  S  S20  1  0.66593692  0.99321532  0.44542639  1
