# generated using pymatgen
data_HfPt(SeS)2
_symmetry_space_group_name_H-M   'P 1'
_cell_length_a   6.31234600
_cell_length_b   6.31234601
_cell_length_c   30.00000000
_cell_angle_alpha   90.00000000
_cell_angle_beta   90.00000000
_cell_angle_gamma   60.00000003
_symmetry_Int_Tables_number   1
_chemical_formula_structural   HfPt(SeS)2
_chemical_formula_sum   'Hf3 Pt3 Se6 S6'
_cell_volume   1035.22196657
_cell_formula_units_Z   3
loop_
 _symmetry_equiv_pos_site_id
 _symmetry_equiv_pos_as_xyz
  1  'x, y, z'
loop_
 _atom_site_type_symbol
 _atom_site_label
 _atom_site_symmetry_multiplicity
 _atom_site_fract_x
 _atom_site_fract_y
 _atom_site_fract_z
 _atom_site_occupancy
  Hf  Hf0  1  0.66666700  0.66666700  0.40012437  1
  Hf  Hf1  1  0.33333300  0.33333300  0.40012437  1
  Hf  Hf2  1  0.00000000  0.00000000  0.40012437  1
  Pt  Pt3  1  0.00000000  0.00000000  0.59086638  1
  Pt  Pt4  1  0.33333300  0.33333300  0.59086638  1
  Pt  Pt5  1  0.66666700  0.66666700  0.59086638  1
  Se  Se6  1  0.66666700  0.33333300  0.63680396  1
  Se  Se7  1  0.00000000  0.66666700  0.63680396  1
  Se  Se8  1  0.66666700  0.00000000  0.54593629  1
  Se  Se9  1  0.33333300  0.66666700  0.54593629  1
  Se  Se10  1  0.00000000  0.33333300  0.54593629  1
  Se  Se11  1  0.33333300  0.00000000  0.63680396  1
  S  S12  1  0.66666700  0.33333300  0.45133911  1
  S  S13  1  0.33333300  0.00000000  0.34919289  1
  S  S14  1  0.66666700  0.33333300  0.34919289  1
  S  S15  1  0.00000000  0.66666700  0.34919289  1
  S  S16  1  0.33333300  0.00000000  0.45133911  1
  S  S17  1  0.00000000  0.66666700  0.45133911  1
