# generated using pymatgen
data_NiPt(SO)2
_symmetry_space_group_name_H-M   'P 1'
_cell_length_a   3.24818189
_cell_length_b   3.24818200
_cell_length_c   30.00000000
_cell_angle_alpha   90.00000000
_cell_angle_beta   90.00000000
_cell_angle_gamma   59.99999887
_symmetry_Int_Tables_number   1
_chemical_formula_structural   NiPt(SO)2
_chemical_formula_sum   'Ni1 Pt1 S2 O2'
_cell_volume   274.11485854
_cell_formula_units_Z   1
loop_
 _symmetry_equiv_pos_site_id
 _symmetry_equiv_pos_as_xyz
  1  'x, y, z'
loop_
 _atom_site_type_symbol
 _atom_site_label
 _atom_site_symmetry_multiplicity
 _atom_site_fract_x
 _atom_site_fract_y
 _atom_site_fract_z
 _atom_site_occupancy
  Ni  Ni0  1  0.00000000  0.00000000  0.57977805  1
  Pt  Pt1  1  0.00000000  0.00000000  0.42760937  1
  S  S2  1  0.33333300  0.33333300  0.53986001  1
  S  S3  1  0.66666700  0.66666700  0.62029864  1
  O  O4  1  0.33333300  0.33333300  0.39787239  1
  O  O5  1  0.66666700  0.66666700  0.45699155  1
