# generated using pymatgen
data_Cr4Pt3(Se3S4)2
_symmetry_space_group_name_H-M   'P 1'
_cell_length_a   6.28954187
_cell_length_b   6.28954187
_cell_length_c   30.00000000
_cell_angle_alpha   90.00000000
_cell_angle_beta   90.00000000
_cell_angle_gamma   60.00000137
_symmetry_Int_Tables_number   1
_chemical_formula_structural   Cr4Pt3(Se3S4)2
_chemical_formula_sum   'Cr4 Pt3 Se6 S8'
_cell_volume   1027.75575565
_cell_formula_units_Z   1
loop_
 _symmetry_equiv_pos_site_id
 _symmetry_equiv_pos_as_xyz
  1  'x, y, z'
loop_
 _atom_site_type_symbol
 _atom_site_label
 _atom_site_symmetry_multiplicity
 _atom_site_fract_x
 _atom_site_fract_y
 _atom_site_fract_z
 _atom_site_occupancy
  Cr  Cr0  1  0.99978509  0.50109177  0.39600410  1
  Cr  Cr1  1  0.50109206  0.49912355  0.39600411  1
  Cr  Cr2  1  0.49912347  0.99978516  0.39600414  1
  Cr  Cr3  1  0.00000024  0.00000040  0.39598164  1
  Pt  Pt4  1  -0.00000003  0.00000004  0.59681363  1
  Pt  Pt5  1  0.66666684  0.66666663  0.59826156  1
  Pt  Pt6  1  0.33333323  0.33333329  0.59694781  1
  Se  Se7  1  0.99610503  0.66641116  0.55175781  1
  Se  Se8  1  0.33013095  0.66687619  0.64327524  1
  Se  Se9  1  0.66687632  0.00299281  0.64327526  1
  Se  Se10  1  0.00299270  0.33013099  0.64327525  1
  Se  Se11  1  0.33748379  0.99610496  0.55175781  1
  Se  Se12  1  0.66641119  0.33748388  0.55175782  1
  S  S13  1  0.66650606  0.16453558  0.44379548  1
  S  S14  1  0.16593195  0.16743311  0.34803427  1
  S  S15  1  0.16743310  0.66663609  0.34803408  1
  S  S16  1  0.66663578  0.16593064  0.34803423  1
  S  S17  1  0.66666675  0.66666771  0.34806362  1
  S  S18  1  0.16453691  0.16895790  0.44379543  1
  S  S19  1  0.16895791  0.66650638  0.44379563  1
  S  S20  1  0.66666667  0.66666776  0.44415309  1
