# generated using pymatgen
data_Zr3Te6(PbO2)4
_symmetry_space_group_name_H-M   'P 1'
_cell_length_a   6.78558029
_cell_length_b   6.78558029
_cell_length_c   30.00000000
_cell_angle_alpha   90.00000000
_cell_angle_beta   90.00000000
_cell_angle_gamma   59.99999712
_symmetry_Int_Tables_number   1
_chemical_formula_structural   Zr3Te6(PbO2)4
_chemical_formula_sum   'Zr3 Te6 Pb4 O8'
_cell_volume   1196.26077259
_cell_formula_units_Z   1
loop_
 _symmetry_equiv_pos_site_id
 _symmetry_equiv_pos_as_xyz
  1  'x, y, z'
loop_
 _atom_site_type_symbol
 _atom_site_label
 _atom_site_symmetry_multiplicity
 _atom_site_fract_x
 _atom_site_fract_y
 _atom_site_fract_z
 _atom_site_occupancy
  Zr  Zr0  1  0.66666700  0.66666700  0.38784997  1
  Zr  Zr1  1  0.33333300  0.33333300  0.39206945  1
  Zr  Zr2  1  -0.00000000  0.00000000  0.39191599  1
  Te  Te3  1  0.99504167  0.66710756  0.45219619  1
  Te  Te4  1  0.33785077  0.99504167  0.45219619  1
  Te  Te5  1  0.00422569  0.66649411  0.32837280  1
  Te  Te6  1  0.66649411  0.32928020  0.32837280  1
  Te  Te7  1  0.32928020  0.00422569  0.32837280  1
  Te  Te8  1  0.66710756  0.33785077  0.45219619  1
  Pb  Pb9  1  -0.00000000  0.00000000  0.58636723  1
  Pb  Pb10  1  0.50007446  0.50022025  0.58620857  1
  Pb  Pb11  1  0.50022025  0.99970528  0.58620857  1
  Pb  Pb12  1  0.99970528  0.50007446  0.58620857  1
  O  O13  1  0.33341749  0.83435301  0.62187485  1
  O  O14  1  0.83222850  0.33341749  0.62187485  1
  O  O15  1  0.66666700  0.66666700  0.54927907  1
  O  O16  1  0.66694690  0.16476947  0.54936563  1
  O  O17  1  0.16828463  0.66694690  0.54936563  1
  O  O18  1  0.16476947  0.16828463  0.54936563  1
  O  O19  1  0.33333300  0.33333300  0.62169417  1
  O  O20  1  0.83435301  0.83222850  0.62187485  1
