# generated using pymatgen
data_Ti7(S3O4)2
_symmetry_space_group_name_H-M   'P 1'
_cell_length_a   5.94350224
_cell_length_b   5.94350200
_cell_length_c   30.00000000
_cell_angle_alpha   90.00000000
_cell_angle_beta   90.00000000
_cell_angle_gamma   60.00000135
_symmetry_Int_Tables_number   1
_chemical_formula_structural   Ti7(S3O4)2
_chemical_formula_sum   'Ti7 S6 O8'
_cell_volume   917.77608415
_cell_formula_units_Z   1
loop_
 _symmetry_equiv_pos_site_id
 _symmetry_equiv_pos_as_xyz
  1  'x, y, z'
loop_
 _atom_site_type_symbol
 _atom_site_label
 _atom_site_symmetry_multiplicity
 _atom_site_fract_x
 _atom_site_fract_y
 _atom_site_fract_z
 _atom_site_occupancy
  Ti  Ti0  1  0.00000000  0.00000000  0.59011642  1
  Ti  Ti1  1  0.00299839  0.49813836  0.58229490  1
  Ti  Ti2  1  0.49886325  0.00299839  0.58229490  1
  Ti  Ti3  1  0.49813836  0.49886325  0.58229490  1
  Ti  Ti4  1  0.66666700  0.66666700  0.40232530  1
  Ti  Ti5  1  0.33333300  0.33333300  0.40350107  1
  Ti  Ti6  1  0.00000000  0.00000000  0.40327409  1
  S  S7  1  0.33431798  0.99870943  0.44977327  1
  S  S8  1  0.66653735  0.00098580  0.35590196  1
  S  S9  1  0.33247685  0.66653735  0.35590196  1
  S  S10  1  0.00098580  0.33247685  0.35590196  1
  S  S11  1  0.99870943  0.66697259  0.44977327  1
  S  S12  1  0.66697259  0.33431798  0.44977327  1
  O  O13  1  0.33333300  0.33333300  0.61638353  1
  O  O14  1  0.33662600  0.83166496  0.61752504  1
  O  O15  1  0.66666700  0.66666700  0.55049395  1
  O  O16  1  0.66966328  0.16462046  0.55151672  1
  O  O17  1  0.16571726  0.66966328  0.55151672  1
  O  O18  1  0.16462046  0.16571726  0.55151672  1
  O  O19  1  0.83170804  0.33662600  0.61752504  1
  O  O20  1  0.83166496  0.83170804  0.61752504  1
