# generated using pymatgen
data_CrTe4Mo
_symmetry_space_group_name_H-M   'P 1'
_cell_length_a   6.07738500
_cell_length_b   6.07738542
_cell_length_c   30.00000000
_cell_angle_alpha   90.00000000
_cell_angle_beta   90.00000000
_cell_angle_gamma   59.99999687
_symmetry_Int_Tables_number   1
_chemical_formula_structural   CrTe4Mo
_chemical_formula_sum   'Cr3 Te12 Mo3'
_cell_volume   959.58931231
_cell_formula_units_Z   3
loop_
 _symmetry_equiv_pos_site_id
 _symmetry_equiv_pos_as_xyz
  1  'x, y, z'
loop_
 _atom_site_type_symbol
 _atom_site_label
 _atom_site_symmetry_multiplicity
 _atom_site_fract_x
 _atom_site_fract_y
 _atom_site_fract_z
 _atom_site_occupancy
  Cr  Cr0  1  0.00000000  0.00000000  0.61654253  1
  Cr  Cr1  1  0.33333300  0.33333300  0.61654253  1
  Cr  Cr2  1  0.66666700  0.66666700  0.61654253  1
  Te  Te3  1  0.00000000  0.33333300  0.44057676  1
  Te  Te4  1  0.66666700  0.00000000  0.31956535  1
  Te  Te5  1  0.33333300  0.66666700  0.31956535  1
  Te  Te6  1  0.00000000  0.33333300  0.31956535  1
  Te  Te7  1  0.33333300  0.66666700  0.44057676  1
  Te  Te8  1  0.00000000  0.66666700  0.67306706  1
  Te  Te9  1  0.33333300  0.00000000  0.67306706  1
  Te  Te10  1  0.00000000  0.66666700  0.56024626  1
  Te  Te11  1  0.66666700  0.33333300  0.56024626  1
  Te  Te12  1  0.33333300  0.00000000  0.56024626  1
  Te  Te13  1  0.66666700  0.33333300  0.67306706  1
  Te  Te14  1  0.66666700  0.00000000  0.44057676  1
  Mo  Mo15  1  0.00000000  0.00000000  0.38011604  1
  Mo  Mo16  1  0.33333300  0.33333300  0.38011604  1
  Mo  Mo17  1  0.66666700  0.66666700  0.38011604  1
