# generated using pymatgen
data_TiWSe4
_symmetry_space_group_name_H-M   'P 1'
_cell_length_a   5.89899400
_cell_length_b   5.89899343
_cell_length_c   30.00000000
_cell_angle_alpha   90.00000000
_cell_angle_beta   90.00000000
_cell_angle_gamma   59.99999679
_symmetry_Int_Tables_number   1
_chemical_formula_structural   TiWSe4
_chemical_formula_sum   'Ti3 W3 Se12'
_cell_volume   904.08182610
_cell_formula_units_Z   3
loop_
 _symmetry_equiv_pos_site_id
 _symmetry_equiv_pos_as_xyz
  1  'x, y, z'
loop_
 _atom_site_type_symbol
 _atom_site_label
 _atom_site_symmetry_multiplicity
 _atom_site_fract_x
 _atom_site_fract_y
 _atom_site_fract_z
 _atom_site_occupancy
  Ti  Ti0  1  0.00000000  0.00000000  0.61443486  1
  Ti  Ti1  1  0.33333300  0.33333300  0.61443486  1
  Ti  Ti2  1  0.66666700  0.66666700  0.61443486  1
  W  W3  1  0.66666700  0.66666700  0.38355909  1
  W  W4  1  0.33333300  0.33333300  0.38355909  1
  W  W5  1  0.00000000  0.00000000  0.38355909  1
  Se  Se6  1  0.00000000  0.33333300  0.43820584  1
  Se  Se7  1  0.66666700  0.00000000  0.32877915  1
  Se  Se8  1  0.33333300  0.66666700  0.32877915  1
  Se  Se9  1  0.00000000  0.33333300  0.32877915  1
  Se  Se10  1  0.66666700  0.00000000  0.66911832  1
  Se  Se11  1  0.33333300  0.66666700  0.66911832  1
  Se  Se12  1  0.00000000  0.33333300  0.66911832  1
  Se  Se13  1  0.66666700  0.00000000  0.56008275  1
  Se  Se14  1  0.33333300  0.66666700  0.56008275  1
  Se  Se15  1  0.00000000  0.33333300  0.56008275  1
  Se  Se16  1  0.33333300  0.66666700  0.43820584  1
  Se  Se17  1  0.66666700  0.00000000  0.43820584  1
