# generated using pymatgen
data_Hf3Cr4(Te3Se4)2
_symmetry_space_group_name_H-M   'P 1'
_cell_length_a   6.59590100
_cell_length_b   6.59590140
_cell_length_c   30.00000000
_cell_angle_alpha   90.00000000
_cell_angle_beta   90.00000000
_cell_angle_gamma   59.99999699
_symmetry_Int_Tables_number   1
_chemical_formula_structural   Hf3Cr4(Te3Se4)2
_chemical_formula_sum   'Hf3 Cr4 Te6 Se8'
_cell_volume   1130.31673255
_cell_formula_units_Z   1
loop_
 _symmetry_equiv_pos_site_id
 _symmetry_equiv_pos_as_xyz
  1  'x, y, z'
loop_
 _atom_site_type_symbol
 _atom_site_label
 _atom_site_symmetry_multiplicity
 _atom_site_fract_x
 _atom_site_fract_y
 _atom_site_fract_z
 _atom_site_occupancy
  Hf  Hf0  1  0.66666700  0.66666700  0.37775043  1
  Hf  Hf1  1  0.33333300  0.33333300  0.38200493  1
  Hf  Hf2  1  0.00000000  0.00000000  0.38305852  1
  Cr  Cr3  1  0.00000000  0.00000000  0.61015807  1
  Cr  Cr4  1  0.99971552  0.49888422  0.61018285  1
  Cr  Cr5  1  0.50140027  0.99971552  0.61018285  1
  Cr  Cr6  1  0.49888422  0.50140027  0.61018285  1
  Te  Te7  1  0.99505375  0.33935522  0.44288352  1
  Te  Te8  1  0.66758897  0.00415835  0.31857739  1
  Te  Te9  1  0.32825268  0.66758897  0.31857739  1
  Te  Te10  1  0.00415835  0.32825268  0.31857739  1
  Te  Te11  1  0.66559103  0.99505375  0.44288352  1
  Te  Te12  1  0.33935522  0.66559103  0.44288352  1
  Se  Se13  1  0.16575417  0.66672084  0.66158865  1
  Se  Se14  1  0.16752599  0.16575417  0.66158865  1
  Se  Se15  1  0.66666700  0.66666700  0.55862620  1
  Se  Se16  1  0.66634830  0.16907141  0.55894105  1
  Se  Se17  1  0.16458129  0.66634830  0.55894105  1
  Se  Se18  1  0.16907141  0.16458129  0.55894105  1
  Se  Se19  1  0.66666700  0.66666700  0.66158647  1
  Se  Se20  1  0.66672084  0.16752599  0.66158865  1
