# generated using pymatgen
data_CrWSe4
_symmetry_space_group_name_H-M   'P 1'
_cell_length_a   5.65446000
_cell_length_b   5.65446000
_cell_length_c   30.00000000
_cell_angle_alpha   90.00000000
_cell_angle_beta   90.00000000
_cell_angle_gamma   60.00000005
_symmetry_Int_Tables_number   1
_chemical_formula_structural   CrWSe4
_chemical_formula_sum   'Cr3 W3 Se12'
_cell_volume   830.68077302
_cell_formula_units_Z   3
loop_
 _symmetry_equiv_pos_site_id
 _symmetry_equiv_pos_as_xyz
  1  'x, y, z'
loop_
 _atom_site_type_symbol
 _atom_site_label
 _atom_site_symmetry_multiplicity
 _atom_site_fract_x
 _atom_site_fract_y
 _atom_site_fract_z
 _atom_site_occupancy
  Cr  Cr0  1  0.00000000  0.00000000  0.61494405  1
  Cr  Cr1  1  0.33333300  0.33333300  0.61494405  1
  Cr  Cr2  1  0.66666700  0.66666700  0.61494405  1
  W  W3  1  0.66666700  0.66666700  0.38153078  1
  W  W4  1  0.33333300  0.33333300  0.38153078  1
  W  W5  1  0.00000000  0.00000000  0.38153078  1
  Se  Se6  1  0.33333300  0.00000000  0.43796620  1
  Se  Se7  1  0.00000000  0.66666700  0.32503894  1
  Se  Se8  1  0.66666700  0.33333300  0.32503894  1
  Se  Se9  1  0.33333300  0.00000000  0.32503894  1
  Se  Se10  1  0.00000000  0.66666700  0.66665250  1
  Se  Se11  1  0.66666700  0.33333300  0.66665250  1
  Se  Se12  1  0.33333300  0.00000000  0.66665250  1
  Se  Se13  1  0.00000000  0.66666700  0.56330152  1
  Se  Se14  1  0.66666700  0.33333300  0.56330152  1
  Se  Se15  1  0.33333300  0.00000000  0.56330152  1
  Se  Se16  1  0.66666700  0.33333300  0.43796620  1
  Se  Se17  1  0.00000000  0.66666700  0.43796620  1
