# generated using pymatgen
data_Ni4Pd3(Se3S4)2
_symmetry_space_group_name_H-M   'P 1'
_cell_length_a   6.58472241
_cell_length_b   6.58472300
_cell_length_c   30.00000000
_cell_angle_alpha   90.00000000
_cell_angle_beta   90.00000000
_cell_angle_gamma   60.00000205
_symmetry_Int_Tables_number   1
_chemical_formula_structural   Ni4Pd3(Se3S4)2
_chemical_formula_sum   'Ni4 Pd3 Se6 S8'
_cell_volume   1126.48879627
_cell_formula_units_Z   1
loop_
 _symmetry_equiv_pos_site_id
 _symmetry_equiv_pos_as_xyz
  1  'x, y, z'
loop_
 _atom_site_type_symbol
 _atom_site_label
 _atom_site_symmetry_multiplicity
 _atom_site_fract_x
 _atom_site_fract_y
 _atom_site_fract_z
 _atom_site_occupancy
  Ni  Ni0  1  0.00000000  0.00000000  0.58145018  1
  Ni  Ni1  1  0.99969443  0.50708276  0.58260795  1
  Ni  Ni2  1  0.49322281  0.99969443  0.58260795  1
  Ni  Ni3  1  0.50708276  0.49322281  0.58260795  1
  Pd  Pd4  1  0.66666700  0.66666700  0.41557744  1
  Pd  Pd5  1  0.33333300  0.33333300  0.41874021  1
  Pd  Pd6  1  0.00000000  0.00000000  0.41983756  1
  Se  Se7  1  0.33992082  0.99400878  0.46012019  1
  Se  Se8  1  0.66790432  0.00691618  0.37536032  1
  Se  Se9  1  0.32517949  0.66790432  0.37536032  1
  Se  Se10  1  0.00691618  0.32517949  0.37536032  1
  Se  Se11  1  0.99400878  0.66607041  0.46012019  1
  Se  Se12  1  0.66607041  0.33992082  0.46012019  1
  S  S13  1  0.33333300  0.33333300  0.62253132  1
  S  S14  1  0.33185262  0.82534121  0.62241227  1
  S  S15  1  0.66666700  0.66666700  0.54306517  1
  S  S16  1  0.66495127  0.16226520  0.54263631  1
  S  S17  1  0.17278453  0.66495127  0.54263631  1
  S  S18  1  0.16226520  0.17278453  0.54263631  1
  S  S19  1  0.84280518  0.33185262  0.62241227  1
  S  S20  1  0.82534121  0.84280518  0.62241227  1
