# generated using pymatgen
data_Hf4Mo7(S4O7)2
_symmetry_space_group_name_H-M   'P 1'
_cell_length_a   7.38048724
_cell_length_b   7.38048746
_cell_length_c   30.00000000
_cell_angle_alpha   90.00000000
_cell_angle_beta   90.00000000
_cell_angle_gamma   60.00000257
_symmetry_Int_Tables_number   1
_chemical_formula_structural   Hf4Mo7(S4O7)2
_chemical_formula_sum   'Hf4 Mo7 S8 O14'
_cell_volume   1415.21355136
_cell_formula_units_Z   1
loop_
 _symmetry_equiv_pos_site_id
 _symmetry_equiv_pos_as_xyz
  1  'x, y, z'
loop_
 _atom_site_type_symbol
 _atom_site_label
 _atom_site_symmetry_multiplicity
 _atom_site_fract_x
 _atom_site_fract_y
 _atom_site_fract_z
 _atom_site_occupancy
  Hf  Hf0  1  0.00000000  0.00000000  0.59447903  1
  Hf  Hf1  1  0.99991547  0.50024505  0.59454344  1
  Hf  Hf2  1  0.49983949  0.99991547  0.59454344  1
  Hf  Hf3  1  0.50024505  0.49983949  0.59454344  1
  Mo  Mo4  1  0.85701107  0.71435395  0.40773443  1
  Mo  Mo5  1  0.71435395  0.42863499  0.40773443  1
  Mo  Mo6  1  0.57143429  0.14297323  0.40776898  1
  Mo  Mo7  1  0.28559248  0.57143429  0.40776898  1
  Mo  Mo8  1  0.14297323  0.28559248  0.40776898  1
  Mo  Mo9  1  0.00000000  0.00000000  0.40742735  1
  Mo  Mo10  1  0.42863499  0.85701107  0.40773443  1
  S  S11  1  0.83345991  0.33326208  0.64182811  1
  S  S12  1  0.33333300  0.33333300  0.64184676  1
  S  S13  1  0.33326208  0.83327702  0.64182811  1
  S  S14  1  0.66666700  0.66666700  0.54736983  1
  S  S15  1  0.66624978  0.16639702  0.54758153  1
  S  S16  1  0.16735420  0.66624978  0.54758153  1
  S  S17  1  0.16639702  0.16735420  0.54758153  1
  S  S18  1  0.83327702  0.83345991  0.64182811  1
  O  O19  1  0.61896465  0.90506011  0.44932039  1
  O  O20  1  0.76278724  0.19029677  0.44906226  1
  O  O21  1  0.47597523  0.61896465  0.44932039  1
  O  O22  1  0.33333300  0.33333300  0.44941333  1
  O  O23  1  0.19029677  0.04691599  0.44906226  1
  O  O24  1  0.04761139  0.76144236  0.36606851  1
  O  O25  1  0.47617846  0.61898230  0.36622119  1
  O  O26  1  0.61898230  0.90483924  0.36622119  1
  O  O27  1  0.76144236  0.19094625  0.36606851  1
  O  O28  1  0.33333300  0.33333300  0.36626215  1
  O  O29  1  0.19094625  0.04761139  0.36606851  1
  O  O30  1  0.90506011  0.47597523  0.44932039  1
  O  O31  1  0.90483924  0.47617846  0.36622119  1
  O  O32  1  0.04691599  0.76278724  0.44906226  1
