# generated using pymatgen
data_ZrTi(TeSe)2
_symmetry_space_group_name_H-M   'P 1'
_cell_length_a   6.44212900
_cell_length_b   6.44212980
_cell_length_c   30.00000000
_cell_angle_alpha   90.00000000
_cell_angle_beta   90.00000000
_cell_angle_gamma   59.99999896
_symmetry_Int_Tables_number   1
_chemical_formula_structural   ZrTi(TeSe)2
_chemical_formula_sum   'Zr3 Ti3 Te6 Se6'
_cell_volume   1078.22840740
_cell_formula_units_Z   3
loop_
 _symmetry_equiv_pos_site_id
 _symmetry_equiv_pos_as_xyz
  1  'x, y, z'
loop_
 _atom_site_type_symbol
 _atom_site_label
 _atom_site_symmetry_multiplicity
 _atom_site_fract_x
 _atom_site_fract_y
 _atom_site_fract_z
 _atom_site_occupancy
  Zr  Zr0  1  0.66666700  0.66666700  0.39269709  1
  Zr  Zr1  1  0.33333300  0.33333300  0.39269709  1
  Zr  Zr2  1  0.00000000  0.00000000  0.39269709  1
  Ti  Ti3  1  0.00000000  0.00000000  0.61041085  1
  Ti  Ti4  1  0.33333300  0.33333300  0.61041085  1
  Ti  Ti5  1  0.66666700  0.66666700  0.61041085  1
  Te  Te6  1  0.33333300  0.66666700  0.67029429  1
  Te  Te7  1  0.66666700  0.00000000  0.67029429  1
  Te  Te8  1  0.66666700  0.00000000  0.55169353  1
  Te  Te9  1  0.33333300  0.66666700  0.55169353  1
  Te  Te10  1  0.00000000  0.33333300  0.55169353  1
  Te  Te11  1  0.00000000  0.33333300  0.67029429  1
  Se  Se12  1  0.66666700  0.33333300  0.44873142  1
  Se  Se13  1  0.33333300  0.00000000  0.33657882  1
  Se  Se14  1  0.66666700  0.33333300  0.33657882  1
  Se  Se15  1  0.00000000  0.66666700  0.33657882  1
  Se  Se16  1  0.33333300  0.00000000  0.44873142  1
  Se  Se17  1  0.00000000  0.66666700  0.44873142  1
