# generated using pymatgen
data_Zr3Pd4(S3O4)2
_symmetry_space_group_name_H-M   'P 1'
_cell_length_a   6.18675835
_cell_length_b   6.18675900
_cell_length_c   30.00000000
_cell_angle_alpha   90.00000000
_cell_angle_beta   90.00000000
_cell_angle_gamma   60.00000188
_symmetry_Int_Tables_number   1
_chemical_formula_structural   Zr3Pd4(S3O4)2
_chemical_formula_sum   'Zr3 Pd4 S6 O8'
_cell_volume   994.43922536
_cell_formula_units_Z   1
loop_
 _symmetry_equiv_pos_site_id
 _symmetry_equiv_pos_as_xyz
  1  'x, y, z'
loop_
 _atom_site_type_symbol
 _atom_site_label
 _atom_site_symmetry_multiplicity
 _atom_site_fract_x
 _atom_site_fract_y
 _atom_site_fract_z
 _atom_site_occupancy
  Zr  Zr0  1  0.66666676  0.66666680  0.39509227  1
  Zr  Zr1  1  0.33333320  0.33333325  0.40648433  1
  Zr  Zr2  1  0.00000004  0.99999995  0.40937444  1
  Pd  Pd3  1  0.99999996  0.00000001  0.58035370  1
  Pd  Pd4  1  0.99988424  0.49999640  0.58032450  1
  Pd  Pd5  1  0.50011940  0.99988424  0.58032450  1
  Pd  Pd6  1  0.49999641  0.50011935  0.58032450  1
  S  S7  1  0.98940142  0.34653586  0.45552968  1
  S  S8  1  0.66891532  0.01082899  0.35135132  1
  S  S9  1  0.32025579  0.66891531  0.35135136  1
  S  S10  1  0.01082894  0.32025572  0.35135132  1
  S  S11  1  0.66406269  0.98940147  0.45552968  1
  S  S12  1  0.34653583  0.66406267  0.45552965  1
  O  O13  1  0.33333315  0.33333319  0.61265676  1
  O  O14  1  0.33319587  0.83401660  0.61266052  1
  O  O15  1  0.66666679  0.66666688  0.54790751  1
  O  O16  1  0.66661708  0.16763927  0.54803865  1
  O  O17  1  0.16574413  0.66661705  0.54803864  1
  O  O18  1  0.16763930  0.16574412  0.54803865  1
  O  O19  1  0.83278705  0.33319584  0.61266052  1
  O  O20  1  0.83401663  0.83278704  0.61266052  1
