# generated using pymatgen
data_Sn3(W2S7)2
_symmetry_space_group_name_H-M   'P 1'
_cell_length_a   6.38669600
_cell_length_b   6.38669602
_cell_length_c   30.00000000
_cell_angle_alpha   90.00000000
_cell_angle_beta   90.00000000
_cell_angle_gamma   60.00000008
_symmetry_Int_Tables_number   1
_chemical_formula_structural   Sn3(W2S7)2
_chemical_formula_sum   'Sn3 W4 S14'
_cell_volume   1059.75232292
_cell_formula_units_Z   1
loop_
 _symmetry_equiv_pos_site_id
 _symmetry_equiv_pos_as_xyz
  1  'x, y, z'
loop_
 _atom_site_type_symbol
 _atom_site_label
 _atom_site_symmetry_multiplicity
 _atom_site_fract_x
 _atom_site_fract_y
 _atom_site_fract_z
 _atom_site_occupancy
  Sn  Sn0  1  0.00000000  0.00000000  0.60420677  1
  Sn  Sn1  1  0.33333300  0.33333300  0.60422820  1
  Sn  Sn2  1  0.66666700  0.66666700  0.60478572  1
  W  W3  1  0.49952748  0.50060948  0.39164146  1
  W  W4  1  0.50060948  0.99986303  0.39164146  1
  W  W5  1  0.00000000  0.00000000  0.39156830  1
  W  W6  1  0.99986303  0.49952748  0.39164146  1
  S  S7  1  0.66673831  0.33212977  0.65373611  1
  S  S8  1  0.00113192  0.66673831  0.65373611  1
  S  S9  1  0.66660863  0.99823606  0.55514567  1
  S  S10  1  0.66671807  0.16774106  0.44365424  1
  S  S11  1  0.33515532  0.66660863  0.55514567  1
  S  S12  1  0.99823606  0.33515532  0.55514567  1
  S  S13  1  0.16722302  0.16626050  0.33944913  1
  S  S14  1  0.16626050  0.66651748  0.33944913  1
  S  S15  1  0.66651748  0.16722302  0.33944913  1
  S  S16  1  0.66666700  0.66666700  0.33949645  1
  S  S17  1  0.16774106  0.16554186  0.44365424  1
  S  S18  1  0.16554186  0.66671807  0.44365424  1
  S  S19  1  0.33212977  0.00113192  0.65373611  1
  S  S20  1  0.66666700  0.66666700  0.44391369  1
