# generated using pymatgen
data_Mo4Pd3Se14
_symmetry_space_group_name_H-M   'P 1'
_cell_length_a   6.55089656
_cell_length_b   6.55089600
_cell_length_c   30.00000000
_cell_angle_alpha   90.00000000
_cell_angle_beta   90.00000000
_cell_angle_gamma   60.00000283
_symmetry_Int_Tables_number   1
_chemical_formula_structural   Mo4Pd3Se14
_chemical_formula_sum   'Mo4 Pd3 Se14'
_cell_volume   1114.94474627
_cell_formula_units_Z   1
loop_
 _symmetry_equiv_pos_site_id
 _symmetry_equiv_pos_as_xyz
  1  'x, y, z'
loop_
 _atom_site_type_symbol
 _atom_site_label
 _atom_site_symmetry_multiplicity
 _atom_site_fract_x
 _atom_site_fract_y
 _atom_site_fract_z
 _atom_site_occupancy
  Mo  Mo0  1  0.99978239  0.50125222  0.39064151  1
  Mo  Mo1  1  0.50125222  0.49896539  0.39064151  1
  Mo  Mo2  1  0.49896539  0.99978239  0.39064151  1
  Mo  Mo3  1  0.00000000  0.00000000  0.39062675  1
  Pd  Pd4  1  0.00000000  0.00000000  0.59516562  1
  Pd  Pd5  1  0.66666700  0.66666700  0.59715117  1
  Pd  Pd6  1  0.33333300  0.33333300  0.59546055  1
  Se  Se7  1  0.99536800  0.66607978  0.55344644  1
  Se  Se8  1  0.32934299  0.66713810  0.63882891  1
  Se  Se9  1  0.66713810  0.00351890  0.63882891  1
  Se  Se10  1  0.00351890  0.32934299  0.63882891  1
  Se  Se11  1  0.33855223  0.99536800  0.55344644  1
  Se  Se12  1  0.66653728  0.16458358  0.44652871  1
  Se  Se13  1  0.16576888  0.16760421  0.33460400  1
  Se  Se14  1  0.16760421  0.66662790  0.33460400  1
  Se  Se15  1  0.66662790  0.16576888  0.33460400  1
  Se  Se16  1  0.66666700  0.66666700  0.33460297  1
  Se  Se17  1  0.16458358  0.16888014  0.44652871  1
  Se  Se18  1  0.16888014  0.66653728  0.44652871  1
  Se  Se19  1  0.66607978  0.33855223  0.55344644  1
  Se  Se20  1  0.66666700  0.66666700  0.44685521  1
