# generated using pymatgen
data_ZrTe2WO2
_symmetry_space_group_name_H-M   'P 1'
_cell_length_a   5.90166600
_cell_length_b   5.90166628
_cell_length_c   30.00000000
_cell_angle_alpha   90.00000000
_cell_angle_beta   90.00000000
_cell_angle_gamma   60.00000155
_symmetry_Int_Tables_number   1
_chemical_formula_structural   ZrTe2WO2
_chemical_formula_sum   'Zr3 Te6 W3 O6'
_cell_volume   904.90120843
_cell_formula_units_Z   3
loop_
 _symmetry_equiv_pos_site_id
 _symmetry_equiv_pos_as_xyz
  1  'x, y, z'
loop_
 _atom_site_type_symbol
 _atom_site_label
 _atom_site_symmetry_multiplicity
 _atom_site_fract_x
 _atom_site_fract_y
 _atom_site_fract_z
 _atom_site_occupancy
  Zr  Zr0  1  0.00000000  0.00000000  0.58648348  1
  Zr  Zr1  1  0.33333300  0.33333300  0.58648348  1
  Zr  Zr2  1  0.66666700  0.66666700  0.58648348  1
  Te  Te3  1  0.00000000  0.33333300  0.44738243  1
  Te  Te4  1  0.66666700  0.00000000  0.32302742  1
  Te  Te5  1  0.33333300  0.66666700  0.32302742  1
  Te  Te6  1  0.00000000  0.33333300  0.32302742  1
  Te  Te7  1  0.33333300  0.66666700  0.44738243  1
  Te  Te8  1  0.66666700  0.00000000  0.44738243  1
  W  W9  1  0.00000000  0.00000000  0.38525234  1
  W  W10  1  0.33333300  0.33333300  0.38525234  1
  W  W11  1  0.66666700  0.66666700  0.38525234  1
  O  O12  1  0.33333300  0.66666700  0.61671467  1
  O  O13  1  0.00000000  0.66666700  0.55637765  1
  O  O14  1  0.66666700  0.33333300  0.55637765  1
  O  O15  1  0.33333300  0.00000000  0.55637765  1
  O  O16  1  0.66666700  0.00000000  0.61671467  1
  O  O17  1  0.00000000  0.33333300  0.61671467  1
