# generated using pymatgen
data_Hf3Te6(PbO2)4
_symmetry_space_group_name_H-M   'P 1'
_cell_length_a   6.77639816
_cell_length_b   6.77639900
_cell_length_c   30.00000000
_cell_angle_alpha   90.00000000
_cell_angle_beta   90.00000000
_cell_angle_gamma   60.00000079
_symmetry_Int_Tables_number   1
_chemical_formula_structural   Hf3Te6(PbO2)4
_chemical_formula_sum   'Hf3 Te6 Pb4 O8'
_cell_volume   1193.02563458
_cell_formula_units_Z   1
loop_
 _symmetry_equiv_pos_site_id
 _symmetry_equiv_pos_as_xyz
  1  'x, y, z'
loop_
 _atom_site_type_symbol
 _atom_site_label
 _atom_site_symmetry_multiplicity
 _atom_site_fract_x
 _atom_site_fract_y
 _atom_site_fract_z
 _atom_site_occupancy
  Hf  Hf0  1  0.66659783  0.66669144  0.38791192  1
  Hf  Hf1  1  0.33328932  0.33330705  0.39204318  1
  Hf  Hf2  1  0.99998840  0.00000007  0.39190794  1
  Te  Te3  1  0.99484181  0.66705653  0.45139715  1
  Te  Te4  1  0.33806439  0.99489063  0.45140319  1
  Te  Te5  1  0.00417190  0.66654536  0.32921213  1
  Te  Te6  1  0.66649519  0.32924122  0.32921232  1
  Te  Te7  1  0.32924033  0.00421937  0.32920603  1
  Te  Te8  1  0.66701017  0.33805033  0.45139733  1
  Pb  Pb9  1  0.99999941  0.00000010  0.58670218  1
  Pb  Pb10  1  0.50003755  0.50025908  0.58654368  1
  Pb  Pb11  1  0.50026010  0.99970323  0.58654294  1
  Pb  Pb12  1  0.99970326  0.50003739  0.58654307  1
  O  O13  1  0.33344920  0.83439396  0.62228640  1
  O  O14  1  0.83215838  0.33344868  0.62228682  1
  O  O15  1  0.66666663  0.66666529  0.54958103  1
  O  O16  1  0.66692589  0.16479078  0.54969947  1
  O  O17  1  0.16828466  0.66692527  0.54969999  1
  O  O18  1  0.16478897  0.16828528  0.54970023  1
  O  O19  1  0.33333344  0.33333230  0.62213340  1
  O  O20  1  0.83439318  0.83215665  0.62228661  1
