# generated using pymatgen
data_Hf4Te8(MoO2)7
_symmetry_space_group_name_H-M   'P 1'
_cell_length_a   7.63874146
_cell_length_b   7.63874200
_cell_length_c   30.00000000
_cell_angle_alpha   90.00000000
_cell_angle_beta   90.00000000
_cell_angle_gamma   59.99999766
_symmetry_Int_Tables_number   1
_chemical_formula_structural   Hf4Te8(MoO2)7
_chemical_formula_sum   'Hf4 Te8 Mo7 O14'
_cell_volume   1515.98718172
_cell_formula_units_Z   1
loop_
 _symmetry_equiv_pos_site_id
 _symmetry_equiv_pos_as_xyz
  1  'x, y, z'
loop_
 _atom_site_type_symbol
 _atom_site_label
 _atom_site_symmetry_multiplicity
 _atom_site_fract_x
 _atom_site_fract_y
 _atom_site_fract_z
 _atom_site_occupancy
  Hf  Hf0  1  0.00000000  0.00000000  0.61078848  1
  Hf  Hf1  1  0.00008904  0.50023067  0.61204373  1
  Hf  Hf2  1  0.49968029  0.00008904  0.61204373  1
  Hf  Hf3  1  0.50023067  0.49968029  0.61204373  1
  Te  Te4  1  0.16713382  0.16718712  0.54965301  1
  Te  Te5  1  0.16718712  0.66568006  0.54965301  1
  Te  Te6  1  0.66568006  0.16713382  0.54965301  1
  Te  Te7  1  0.66666700  0.66666700  0.55041527  1
  Te  Te8  1  0.16584692  0.16649911  0.67415128  1
  Te  Te9  1  0.16649911  0.66765497  0.67415128  1
  Te  Te10  1  0.66765497  0.16584692  0.67415128  1
  Te  Te11  1  0.66666700  0.66666700  0.67470013  1
  Mo  Mo12  1  0.85729383  0.42859710  0.40526371  1
  Mo  Mo13  1  0.71410907  0.85729383  0.40526371  1
  Mo  Mo14  1  0.42859710  0.71410907  0.40526371  1
  Mo  Mo15  1  0.57152325  0.28564715  0.40543122  1
  Mo  Mo16  1  0.14282961  0.57152325  0.40543122  1
  Mo  Mo17  1  0.00000000  0.00000000  0.40552320  1
  Mo  Mo18  1  0.28564715  0.14282961  0.40543122  1
  O  O19  1  0.95161405  0.80975980  0.44613988  1
  O  O20  1  0.80975980  0.23862615  0.44613988  1
  O  O21  1  0.66666700  0.66666700  0.44576638  1
  O  O22  1  0.52346002  0.09498551  0.44611527  1
  O  O23  1  0.38155447  0.52346002  0.44611527  1
  O  O24  1  0.23862615  0.95161405  0.44613988  1
  O  O25  1  0.95249609  0.80974697  0.36485341  1
  O  O26  1  0.80974697  0.23775694  0.36485341  1
  O  O27  1  0.66666700  0.66666700  0.36462381  1
  O  O28  1  0.52353528  0.09549498  0.36481772  1
  O  O29  1  0.38096974  0.52353528  0.36481772  1
  O  O30  1  0.23775694  0.95249609  0.36485341  1
  O  O31  1  0.09549498  0.38096974  0.36481772  1
  O  O32  1  0.09498551  0.38155447  0.44611527  1
