# generated using pymatgen
data_Ni3W4(Se3S4)2
_symmetry_space_group_name_H-M   'P 1'
_cell_length_a   6.25281916
_cell_length_b   6.25281900
_cell_length_c   30.00000000
_cell_angle_alpha   90.00000000
_cell_angle_beta   90.00000000
_cell_angle_gamma   59.99999558
_symmetry_Int_Tables_number   1
_chemical_formula_structural   Ni3W4(Se3S4)2
_chemical_formula_sum   'Ni3 W4 Se6 S8'
_cell_volume   1015.78920501
_cell_formula_units_Z   1
loop_
 _symmetry_equiv_pos_site_id
 _symmetry_equiv_pos_as_xyz
  1  'x, y, z'
loop_
 _atom_site_type_symbol
 _atom_site_label
 _atom_site_symmetry_multiplicity
 _atom_site_fract_x
 _atom_site_fract_y
 _atom_site_fract_z
 _atom_site_occupancy
  Ni  Ni0  1  0.00000000  0.00000000  0.59327998  1
  Ni  Ni1  1  0.33333300  0.33333300  0.59344428  1
  Ni  Ni2  1  0.66666700  0.66666700  0.59464235  1
  W  W3  1  0.50074762  0.49936566  0.39369877  1
  W  W4  1  0.49936566  0.99988671  0.39369877  1
  W  W5  1  0.00000000  0.00000000  0.39373312  1
  W  W6  1  0.99988671  0.50074762  0.39369877  1
  Se  Se7  1  0.66682692  0.00198931  0.63410294  1
  Se  Se8  1  0.00198931  0.33118377  0.63410294  1
  Se  Se9  1  0.99649909  0.66635462  0.55390593  1
  Se  Se10  1  0.66635462  0.33714628  0.55390593  1
  Se  Se11  1  0.33714628  0.99649909  0.55390593  1
  Se  Se12  1  0.33118377  0.66682692  0.63410294  1
  S  S13  1  0.66647337  0.16536808  0.44656343  1
  S  S14  1  0.16597909  0.16726094  0.34071009  1
  S  S15  1  0.16726094  0.66676097  0.34071009  1
  S  S16  1  0.66676097  0.16597909  0.34071009  1
  S  S17  1  0.66666700  0.66666700  0.34071866  1
  S  S18  1  0.16536808  0.16815955  0.44656343  1
  S  S19  1  0.16815955  0.66647337  0.44656343  1
  S  S20  1  0.66666700  0.66666700  0.44678613  1
