# generated using pymatgen
data_Hf7Mo12(S7O12)2
_symmetry_space_group_name_H-M   'P 1'
_cell_length_a   9.56972975
_cell_length_b   9.56972975
_cell_length_c   30.00000000
_cell_angle_alpha   90.00000000
_cell_angle_beta   90.00000000
_cell_angle_gamma   60.00000172
_symmetry_Int_Tables_number   1
_chemical_formula_structural   Hf7Mo12(S7O12)2
_chemical_formula_sum   'Hf7 Mo12 S14 O24'
_cell_volume   2379.31115611
_cell_formula_units_Z   1
loop_
 _symmetry_equiv_pos_site_id
 _symmetry_equiv_pos_as_xyz
  1  'x, y, z'
loop_
 _atom_site_type_symbol
 _atom_site_label
 _atom_site_symmetry_multiplicity
 _atom_site_fract_x
 _atom_site_fract_y
 _atom_site_fract_z
 _atom_site_occupancy
  Hf  Hf0  1  0.00000000  0.00000000  0.59445582  1
  Hf  Hf1  1  0.14274300  0.28552915  0.60399167  1
  Hf  Hf2  1  0.57172786  0.14274300  0.60399167  1
  Hf  Hf3  1  0.28552915  0.57172786  0.60399167  1
  Hf  Hf4  1  0.71458224  0.42879630  0.59572150  1
  Hf  Hf5  1  0.42879630  0.85662146  0.59572150  1
  Hf  Hf6  1  0.85662146  0.71458224  0.59572150  1
  Mo  Mo7  1  0.16651717  0.16684585  0.40742275  1
  Mo  Mo8  1  0.16684585  0.66663798  0.40742275  1
  Mo  Mo9  1  0.33333300  0.33333300  0.40695329  1
  Mo  Mo10  1  0.49976725  0.00006098  0.40740050  1
  Mo  Mo11  1  0.83338933  0.33332093  0.40770108  1
  Mo  Mo12  1  0.66663798  0.16651717  0.40742275  1
  Mo  Mo13  1  0.66666700  0.66666700  0.40778694  1
  Mo  Mo14  1  0.00006098  0.50017176  0.40740050  1
  Mo  Mo15  1  0.83328874  0.83338933  0.40770108  1
  Mo  Mo16  1  0.33332093  0.83328874  0.40770108  1
  Mo  Mo17  1  0.00000000  0.00000000  0.40782758  1
  Mo  Mo18  1  0.50017176  0.49976725  0.40740050  1
  S  S19  1  0.38151809  0.09297918  0.65246886  1
  S  S20  1  0.66666700  0.66666700  0.64763823  1
  S  S21  1  0.95630103  0.23934389  0.54701587  1
  S  S22  1  0.52154345  0.38135076  0.55000530  1
  S  S23  1  0.23934389  0.80435508  0.54701587  1
  S  S24  1  0.66666700  0.66666700  0.54505069  1
  S  S25  1  0.38135076  0.09710580  0.55000530  1
  S  S26  1  0.09710580  0.52154345  0.55000530  1
  S  S27  1  0.94829759  0.23642471  0.64948417  1
  S  S28  1  0.09297918  0.52550273  0.65246886  1
  S  S29  1  0.52550273  0.38151809  0.65246886  1
  S  S30  1  0.23642471  0.81527770  0.64948417  1
  S  S31  1  0.80435508  0.95630103  0.54701587  1
  S  S32  1  0.81527770  0.94829759  0.64948417  1
  O  O33  1  0.16754460  0.49945172  0.44895956  1
  O  O34  1  0.33300369  0.16754460  0.44895956  1
  O  O35  1  0.33382518  0.66574194  0.44930789  1
  O  O36  1  0.49945172  0.33300369  0.44895956  1
  O  O37  1  0.49964346  0.83384989  0.44952955  1
  O  O38  1  0.66650665  0.49964346  0.44952955  1
  O  O39  1  0.83278666  0.16677300  0.44954366  1
  O  O40  1  0.16677300  0.00044035  0.44954366  1
  O  O41  1  0.83384989  0.66650665  0.44952955  1
  O  O42  1  0.66574194  0.00043288  0.44930789  1
  O  O43  1  0.99977796  0.83378136  0.36585302  1
  O  O44  1  0.50065305  0.33313753  0.36536146  1
  O  O45  1  0.83288451  0.66706852  0.36581692  1
  O  O46  1  0.83378136  0.16644068  0.36585302  1
  O  O47  1  0.66706852  0.50004697  0.36581692  1
  O  O48  1  0.50004697  0.83288451  0.36581692  1
  O  O49  1  0.66693989  0.99955458  0.36566172  1
  O  O50  1  0.33350553  0.66693989  0.36566172  1
  O  O51  1  0.33313753  0.16620942  0.36536146  1
  O  O52  1  0.16620942  0.50065305  0.36536146  1
  O  O53  1  0.16644068  0.99977796  0.36585302  1
  O  O54  1  0.00043288  0.33382518  0.44930789  1
  O  O55  1  0.99955458  0.33350553  0.36566172  1
  O  O56  1  0.00044035  0.83278666  0.44954366  1
