# generated using pymatgen
data_Ti7Mo12(Se7O12)2
_symmetry_space_group_name_H-M   'P 1'
_cell_length_a   9.50289200
_cell_length_b   9.50289210
_cell_length_c   30.00000000
_cell_angle_alpha   90.00000000
_cell_angle_beta   90.00000000
_cell_angle_gamma   60.00000036
_symmetry_Int_Tables_number   1
_chemical_formula_structural   Ti7Mo12(Se7O12)2
_chemical_formula_sum   'Ti7 Mo12 Se14 O24'
_cell_volume   2346.19162276
_cell_formula_units_Z   1
loop_
 _symmetry_equiv_pos_site_id
 _symmetry_equiv_pos_as_xyz
  1  'x, y, z'
loop_
 _atom_site_type_symbol
 _atom_site_label
 _atom_site_symmetry_multiplicity
 _atom_site_fract_x
 _atom_site_fract_y
 _atom_site_fract_z
 _atom_site_occupancy
  Ti  Ti0  1  0.00002000  0.00000000  0.39115679  1
  Ti  Ti1  1  0.14255331  0.57103343  0.40117490  1
  Ti  Ti2  1  0.57103343  0.28641326  0.40117490  1
  Ti  Ti3  1  0.42872346  0.71438832  0.39847108  1
  Ti  Ti4  1  0.85688822  0.42872346  0.39847108  1
  Ti  Ti5  1  0.71438832  0.85688822  0.39847108  1
  Ti  Ti6  1  0.28641326  0.14255331  0.40117490  1
  Mo  Mo7  1  0.83348915  0.83320958  0.59299799  1
  Mo  Mo8  1  0.66666700  0.66666700  0.59261641  1
  Mo  Mo9  1  0.00000000  0.00000000  0.59347140  1
  Mo  Mo10  1  0.83320958  0.33330027  0.59299799  1
  Mo  Mo11  1  0.50003025  0.49999141  0.59271355  1
  Mo  Mo12  1  0.16647801  0.16681472  0.59300538  1
  Mo  Mo13  1  0.49999141  0.99997834  0.59271355  1
  Mo  Mo14  1  0.99997834  0.50003025  0.59271355  1
  Mo  Mo15  1  0.16681472  0.66670827  0.59300538  1
  Mo  Mo16  1  0.33333300  0.33333300  0.59261631  1
  Mo  Mo17  1  0.66670827  0.16647801  0.59300538  1
  Mo  Mo18  1  0.33330027  0.83348915  0.59299799  1
  Se  Se19  1  0.04981613  0.19279958  0.34408053  1
  Se  Se20  1  0.33333300  0.33333300  0.34774122  1
  Se  Se21  1  0.61985186  0.47454569  0.34611307  1
  Se  Se22  1  0.47454569  0.90560245  0.34611307  1
  Se  Se23  1  0.90560245  0.61985186  0.34611307  1
  Se  Se24  1  0.75738429  0.04981613  0.34408053  1
  Se  Se25  1  0.04629674  0.18901399  0.44954586  1
  Se  Se26  1  0.18901399  0.76468927  0.44954586  1
  Se  Se27  1  0.61778074  0.47920034  0.45182996  1
  Se  Se28  1  0.47920034  0.90301893  0.45182996  1
  Se  Se29  1  0.19279958  0.75738429  0.34408053  1
  Se  Se30  1  0.33333300  0.33333300  0.45337697  1
  Se  Se31  1  0.76468927  0.04629674  0.44954586  1
  Se  Se32  1  0.90301893  0.61778074  0.45182996  1
  O  O33  1  0.83315252  0.50041892  0.63480850  1
  O  O34  1  0.99974161  0.16610686  0.55118855  1
  O  O35  1  0.16632993  0.33314095  0.55060486  1
  O  O36  1  0.50052913  0.16632993  0.55060486  1
  O  O37  1  0.00033731  0.66711339  0.55081483  1
  O  O38  1  0.33314095  0.50052913  0.55060486  1
  O  O39  1  0.66711339  0.33254930  0.55081483  1
  O  O40  1  0.16610686  0.83415153  0.55118855  1
  O  O41  1  0.49946211  0.66713706  0.55064325  1
  O  O42  1  0.83340083  0.49946211  0.55064325  1
  O  O43  1  0.33254930  0.00033731  0.55081483  1
  O  O44  1  0.66713706  0.83340083  0.55064325  1
  O  O45  1  0.83415153  0.99974161  0.55118855  1
  O  O46  1  0.99985754  0.16729386  0.63529007  1
  O  O47  1  0.16673931  0.33373236  0.63480910  1
  O  O48  1  0.49952833  0.16673931  0.63480910  1
  O  O49  1  0.00016747  0.66616210  0.63496814  1
  O  O50  1  0.66616210  0.33367043  0.63496814  1
  O  O51  1  0.16729386  0.83284860  0.63529007  1
  O  O52  1  0.83284860  0.99985754  0.63529007  1
  O  O53  1  0.66642856  0.83315252  0.63480850  1
  O  O54  1  0.33367043  0.00016747  0.63496814  1
  O  O55  1  0.50041892  0.66642856  0.63480850  1
  O  O56  1  0.33373236  0.49952833  0.63480910  1
