# generated using pymatgen
data_Ni4Ge3(S3O4)2
_symmetry_space_group_name_H-M   'P 1'
_cell_length_a   5.81722000
_cell_length_b   5.81721974
_cell_length_c   30.00000000
_cell_angle_alpha   90.00000000
_cell_angle_beta   90.00000000
_cell_angle_gamma   59.99999853
_symmetry_Int_Tables_number   1
_chemical_formula_structural   Ni4Ge3(S3O4)2
_chemical_formula_sum   'Ni4 Ge3 S6 O8'
_cell_volume   879.19019848
_cell_formula_units_Z   1
loop_
 _symmetry_equiv_pos_site_id
 _symmetry_equiv_pos_as_xyz
  1  'x, y, z'
loop_
 _atom_site_type_symbol
 _atom_site_label
 _atom_site_symmetry_multiplicity
 _atom_site_fract_x
 _atom_site_fract_y
 _atom_site_fract_z
 _atom_site_occupancy
  Ni  Ni0  1  0.00009875  0.49991696  0.41943341  1
  Ni  Ni1  1  0.49991696  0.49998429  0.41943341  1
  Ni  Ni2  1  0.49998429  0.00009875  0.41943341  1
  Ni  Ni3  1  0.00000000  0.00000000  0.41940008  1
  Ge  Ge4  1  0.00000000  0.00000000  0.59202662  1
  Ge  Ge5  1  0.66666700  0.66666700  0.59197424  1
  Ge  Ge6  1  0.33333300  0.33333300  0.59223006  1
  S  S7  1  0.66564427  0.00110780  0.54485992  1
  S  S8  1  0.33333243  0.99948584  0.63953492  1
  S  S9  1  0.66718173  0.33333243  0.63953492  1
  S  S10  1  0.99948584  0.66718173  0.63953492  1
  S  S11  1  0.00110780  0.33324793  0.54485992  1
  S  S12  1  0.33324793  0.66564427  0.54485992  1
  O  O13  1  0.83408610  0.83249377  0.44978372  1
  O  O14  1  0.16734092  0.16597554  0.38914504  1
  O  O15  1  0.16597554  0.66668455  0.38914504  1
  O  O16  1  0.66668455  0.16734092  0.38914504  1
  O  O17  1  0.66666700  0.66666700  0.38915525  1
  O  O18  1  0.33341913  0.83408610  0.44978372  1
  O  O19  1  0.33333300  0.33333300  0.44989776  1
  O  O20  1  0.83249377  0.33341913  0.44978372  1
