# generated using pymatgen
data_Ni4W3(Se3O4)2
_symmetry_space_group_name_H-M   'P 1'
_cell_length_a   5.71011865
_cell_length_b   5.71011865
_cell_length_c   30.00000000
_cell_angle_alpha   90.00000000
_cell_angle_beta   90.00000000
_cell_angle_gamma   59.99999244
_symmetry_Int_Tables_number   1
_chemical_formula_structural   Ni4W3(Se3O4)2
_chemical_formula_sum   'Ni4 W3 Se6 O8'
_cell_volume   847.11450608
_cell_formula_units_Z   1
loop_
 _symmetry_equiv_pos_site_id
 _symmetry_equiv_pos_as_xyz
  1  'x, y, z'
loop_
 _atom_site_type_symbol
 _atom_site_label
 _atom_site_symmetry_multiplicity
 _atom_site_fract_x
 _atom_site_fract_y
 _atom_site_fract_z
 _atom_site_occupancy
  Ni  Ni0  1  0.00001323  0.99999990  0.58049504  1
  Ni  Ni1  1  0.99982378  0.50023477  0.58051919  1
  Ni  Ni2  1  0.49995276  0.99979292  0.58052258  1
  Ni  Ni3  1  0.50026504  0.49997121  0.58052548  1
  W  W4  1  0.66666683  0.66666612  0.39833577  1
  W  W5  1  0.33333307  0.33333355  0.39876173  1
  W  W6  1  0.00000001  0.00000010  0.39870613  1
  Se  Se7  1  0.33466437  0.99844854  0.45464931  1
  Se  Se8  1  0.00077283  0.66658379  0.34249501  1
  Se  Se9  1  0.66658389  0.33264331  0.34249504  1
  Se  Se10  1  0.33264322  0.00077261  0.34249500  1
  Se  Se11  1  0.99844846  0.66688709  0.45464942  1
  Se  Se12  1  0.66688692  0.33466449  0.45464932  1
  O  O13  1  0.33334602  0.33332811  0.61154559  1
  O  O14  1  0.33307326  0.83292789  0.61159700  1
  O  O15  1  0.66667843  0.66667164  0.54913951  1
  O  O16  1  0.66649813  0.16544597  0.54923457  1
  O  O17  1  0.16810941  0.66644958  0.54923424  1
  O  O18  1  0.16550297  0.16810203  0.54923447  1
  O  O19  1  0.83406690  0.33302025  0.61159706  1
  O  O20  1  0.83297047  0.83405614  0.61159653  1
