# generated using pymatgen
data_Ti3Te6(MoSe2)4
_symmetry_space_group_name_H-M   'P 1'
_cell_length_a   6.55605150
_cell_length_b   6.55605100
_cell_length_c   30.00000000
_cell_angle_alpha   90.00000000
_cell_angle_beta   90.00000000
_cell_angle_gamma   59.99999746
_symmetry_Int_Tables_number   1
_chemical_formula_structural   Ti3Te6(MoSe2)4
_chemical_formula_sum   'Ti3 Te6 Mo4 Se8'
_cell_volume   1116.70009965
_cell_formula_units_Z   1
loop_
 _symmetry_equiv_pos_site_id
 _symmetry_equiv_pos_as_xyz
  1  'x, y, z'
loop_
 _atom_site_type_symbol
 _atom_site_label
 _atom_site_symmetry_multiplicity
 _atom_site_fract_x
 _atom_site_fract_y
 _atom_site_fract_z
 _atom_site_occupancy
  Ti  Ti0  1  0.66666700  0.66666700  0.38032692  1
  Ti  Ti1  1  0.33333300  0.33333300  0.38429249  1
  Ti  Ti2  1  0.00000000  0.00000000  0.38519120  1
  Te  Te3  1  0.66579000  0.99515663  0.44158784  1
  Te  Te4  1  0.99515663  0.33905337  0.44158784  1
  Te  Te5  1  0.66734811  0.00372752  0.32415900  1
  Te  Te6  1  0.32892437  0.66734811  0.32415900  1
  Te  Te7  1  0.00372752  0.32892437  0.32415900  1
  Te  Te8  1  0.33905337  0.66579000  0.44158784  1
  Mo  Mo9  1  0.00000000  0.00000000  0.61317784  1
  Mo  Mo10  1  0.49885859  0.50127868  0.61318128  1
  Mo  Mo11  1  0.50127868  0.99986273  0.61318128  1
  Mo  Mo12  1  0.99986273  0.49885859  0.61318128  1
  Se  Se13  1  0.16766537  0.16568476  0.66917711  1
  Se  Se14  1  0.66666700  0.66666700  0.66919728  1
  Se  Se15  1  0.66666700  0.66666700  0.55704738  1
  Se  Se16  1  0.66649043  0.16875685  0.55730740  1
  Se  Se17  1  0.16475373  0.66649043  0.55730740  1
  Se  Se18  1  0.16875685  0.16475373  0.55730740  1
  Se  Se19  1  0.16568476  0.66665087  0.66917711  1
  Se  Se20  1  0.66665087  0.16766537  0.66917711  1
