# generated using pymatgen
data_Mo7Pd4(Se4O7)2
_symmetry_space_group_name_H-M   'P 1'
_cell_length_a   7.46023969
_cell_length_b   7.46023900
_cell_length_c   30.00000000
_cell_angle_alpha   90.00000000
_cell_angle_beta   90.00000000
_cell_angle_gamma   59.99999862
_symmetry_Int_Tables_number   1
_chemical_formula_structural   Mo7Pd4(Se4O7)2
_chemical_formula_sum   'Mo7 Pd4 Se8 O14'
_cell_volume   1445.96374023
_cell_formula_units_Z   1
loop_
 _symmetry_equiv_pos_site_id
 _symmetry_equiv_pos_as_xyz
  1  'x, y, z'
loop_
 _atom_site_type_symbol
 _atom_site_label
 _atom_site_symmetry_multiplicity
 _atom_site_fract_x
 _atom_site_fract_y
 _atom_site_fract_z
 _atom_site_occupancy
  Mo  Mo0  1  0.71413515  0.42859854  0.40760796  1
  Mo  Mo1  1  0.85726631  0.71413515  0.40760796  1
  Mo  Mo2  1  0.42859854  0.85726631  0.40760796  1
  Mo  Mo3  1  0.28563458  0.57154922  0.40780592  1
  Mo  Mo4  1  0.57154922  0.14281620  0.40780592  1
  Mo  Mo5  1  0.14281620  0.28563458  0.40780592  1
  Mo  Mo6  1  0.00000000  0.00000000  0.40788960  1
  Pd  Pd7  1  0.00000000  0.00000000  0.58959614  1
  Pd  Pd8  1  0.49956055  0.50010047  0.59003695  1
  Pd  Pd9  1  0.50010047  0.00033898  0.59003695  1
  Pd  Pd10  1  0.00033898  0.49956055  0.59003695  1
  Se  Se11  1  0.33257722  0.83405518  0.63366564  1
  Se  Se12  1  0.33333300  0.33333300  0.63390360  1
  Se  Se13  1  0.83405518  0.83336660  0.63366564  1
  Se  Se14  1  0.83336660  0.33257722  0.63366564  1
  Se  Se15  1  0.66608938  0.16743364  0.54634604  1
  Se  Se16  1  0.16647798  0.66608938  0.54634604  1
  Se  Se17  1  0.16743364  0.16647798  0.54634604  1
  Se  Se18  1  0.66666700  0.66666700  0.54707460  1
  O  O19  1  0.09494469  0.52355745  0.44909184  1
  O  O20  1  0.52355745  0.38149786  0.44909184  1
  O  O21  1  0.66666700  0.66666700  0.44870037  1
  O  O22  1  0.95158014  0.23866623  0.44912461  1
  O  O23  1  0.23866623  0.80975363  0.44912461  1
  O  O24  1  0.80975117  0.95254110  0.36654262  1
  O  O25  1  0.09553281  0.52352771  0.36651299  1
  O  O26  1  0.66666700  0.66666700  0.36628897  1
  O  O27  1  0.23770773  0.80975117  0.36654262  1
  O  O28  1  0.52352771  0.38093949  0.36651299  1
  O  O29  1  0.95254110  0.23770773  0.36654262  1
  O  O30  1  0.38149786  0.09494469  0.44909184  1
  O  O31  1  0.38093949  0.09553281  0.36651299  1
  O  O32  1  0.80975363  0.95158014  0.44912461  1
