# generated using pymatgen
data_ZrNiSe4
_symmetry_space_group_name_H-M   'P 1'
_cell_length_a   6.27274207
_cell_length_b   6.27274207
_cell_length_c   30.00000000
_cell_angle_alpha   90.00000000
_cell_angle_beta   90.00000000
_cell_angle_gamma   59.99999930
_symmetry_Int_Tables_number   1
_chemical_formula_structural   ZrNiSe4
_chemical_formula_sum   'Zr3 Ni3 Se12'
_cell_volume   1022.27265284
_cell_formula_units_Z   3
loop_
 _symmetry_equiv_pos_site_id
 _symmetry_equiv_pos_as_xyz
  1  'x, y, z'
loop_
 _atom_site_type_symbol
 _atom_site_label
 _atom_site_symmetry_multiplicity
 _atom_site_fract_x
 _atom_site_fract_y
 _atom_site_fract_z
 _atom_site_occupancy
  Zr  Zr0  1  0.66666700  0.66666700  0.40097792  1
  Zr  Zr1  1  0.33333300  0.33333300  0.40097792  1
  Zr  Zr2  1  0.00000000  0.00000000  0.40097792  1
  Ni  Ni3  1  0.00000000  0.00000000  0.58345833  1
  Ni  Ni4  1  0.33333300  0.33333300  0.58345833  1
  Ni  Ni5  1  0.66666700  0.66666700  0.58345833  1
  Se  Se6  1  0.33333300  0.00000000  0.45846791  1
  Se  Se7  1  0.00000000  0.66666700  0.34469050  1
  Se  Se8  1  0.66666700  0.33333300  0.34469050  1
  Se  Se9  1  0.33333300  0.00000000  0.34469050  1
  Se  Se10  1  0.00000000  0.66666700  0.62379547  1
  Se  Se11  1  0.66666700  0.33333300  0.62379547  1
  Se  Se12  1  0.33333300  0.00000000  0.62379547  1
  Se  Se13  1  0.66666700  0.00000000  0.54454887  1
  Se  Se14  1  0.33333300  0.66666700  0.54454887  1
  Se  Se15  1  0.00000000  0.33333300  0.54454887  1
  Se  Se16  1  0.66666700  0.33333300  0.45846791  1
  Se  Se17  1  0.00000000  0.66666700  0.45846791  1
