# generated using pymatgen
data_Cr4Pt3S14
_symmetry_space_group_name_H-M   'P 1'
_cell_length_a   6.13963039
_cell_length_b   6.13963039
_cell_length_c   30.00000000
_cell_angle_alpha   90.00000000
_cell_angle_beta   90.00000000
_cell_angle_gamma   59.99999580
_symmetry_Int_Tables_number   1
_chemical_formula_structural   Cr4Pt3S14
_chemical_formula_sum   'Cr4 Pt3 S14'
_cell_volume   979.34637966
_cell_formula_units_Z   1
loop_
 _symmetry_equiv_pos_site_id
 _symmetry_equiv_pos_as_xyz
  1  'x, y, z'
loop_
 _atom_site_type_symbol
 _atom_site_label
 _atom_site_symmetry_multiplicity
 _atom_site_fract_x
 _atom_site_fract_y
 _atom_site_fract_z
 _atom_site_occupancy
  Cr  Cr0  1  0.99983266  0.50085036  0.39603935  1
  Cr  Cr1  1  0.50085036  0.49931697  0.39603935  1
  Cr  Cr2  1  0.49931697  0.99983266  0.39603935  1
  Cr  Cr3  1  0.00000000  0.00000000  0.39600924  1
  Pt  Pt4  1  0.00000000  0.00000000  0.59430478  1
  Pt  Pt5  1  0.66666700  0.66666700  0.59520600  1
  Pt  Pt6  1  0.33333300  0.33333300  0.59441821  1
  S  S7  1  0.99749164  0.66642225  0.55350324  1
  S  S8  1  0.33127607  0.66684838  0.63608126  1
  S  S9  1  0.66684838  0.00187555  0.63608126  1
  S  S10  1  0.00187555  0.33127607  0.63608126  1
  S  S11  1  0.33608611  0.99749164  0.55350324  1
  S  S12  1  0.66650877  0.16500145  0.44451237  1
  S  S13  1  0.16606237  0.16731522  0.34740649  1
  S  S14  1  0.16731522  0.66662340  0.34740649  1
  S  S15  1  0.66662340  0.16606237  0.34740649  1
  S  S16  1  0.66666700  0.66666700  0.34742871  1
  S  S17  1  0.16500145  0.16849078  0.44451237  1
  S  S18  1  0.16849078  0.66650877  0.44451237  1
  S  S19  1  0.66642225  0.33608611  0.55350324  1
  S  S20  1  0.66666700  0.66666700  0.44481193  1
