# generated using pymatgen
data_Ti4Pt3(Se3O4)2
_symmetry_space_group_name_H-M   'P 1'
_cell_length_a   6.22993614
_cell_length_b   6.22993614
_cell_length_c   30.00000000
_cell_angle_alpha   90.00000000
_cell_angle_beta   90.00000000
_cell_angle_gamma   59.99999853
_symmetry_Int_Tables_number   1
_chemical_formula_structural   Ti4Pt3(Se3O4)2
_chemical_formula_sum   'Ti4 Pt3 Se6 O8'
_cell_volume   1008.36803376
_cell_formula_units_Z   1
loop_
 _symmetry_equiv_pos_site_id
 _symmetry_equiv_pos_as_xyz
  1  'x, y, z'
loop_
 _atom_site_type_symbol
 _atom_site_label
 _atom_site_symmetry_multiplicity
 _atom_site_fract_x
 _atom_site_fract_y
 _atom_site_fract_z
 _atom_site_occupancy
  Ti  Ti0  1  0.00742925  0.46561968  0.41264401  1
  Ti  Ti1  1  0.46561968  0.52695107  0.41264401  1
  Ti  Ti2  1  0.52695107  0.00742925  0.41264401  1
  Ti  Ti3  1  0.00000000  0.00000000  0.42038974  1
  Pt  Pt4  1  0.00000000  0.00000000  0.59407719  1
  Pt  Pt5  1  0.66666700  0.66666700  0.59426939  1
  Pt  Pt6  1  0.33333300  0.33333300  0.59508394  1
  Se  Se7  1  0.00246500  0.66354730  0.54819310  1
  Se  Se8  1  0.33285468  0.66899428  0.64108940  1
  Se  Se9  1  0.66899428  0.99815105  0.64108940  1
  Se  Se10  1  0.99815105  0.33285468  0.64108940  1
  Se  Se11  1  0.33398770  0.00246500  0.54819310  1
  Se  Se12  1  0.66354730  0.33398770  0.54819310  1
  O  O13  1  0.82546106  0.85196197  0.44720163  1
  O  O14  1  0.16749907  0.16507270  0.38275611  1
  O  O15  1  0.16507270  0.66742923  0.38275611  1
  O  O16  1  0.66742923  0.16749907  0.38275611  1
  O  O17  1  0.66666700  0.66666700  0.38586702  1
  O  O18  1  0.32257597  0.82546106  0.44720163  1
  O  O19  1  0.33333300  0.33333300  0.44469799  1
  O  O20  1  0.85196197  0.32257597  0.44720163  1
