# generated using pymatgen
data_Cr4Te6Mo3Se8
_symmetry_space_group_name_H-M   'P 1'
_cell_length_a   6.28229829
_cell_length_b   6.28229800
_cell_length_c   30.00000000
_cell_angle_alpha   90.00000000
_cell_angle_beta   90.00000000
_cell_angle_gamma   60.00000154
_symmetry_Int_Tables_number   1
_chemical_formula_structural   Cr4Te6Mo3Se8
_chemical_formula_sum   'Cr4 Te6 Mo3 Se8'
_cell_volume   1025.38976903
_cell_formula_units_Z   1
loop_
 _symmetry_equiv_pos_site_id
 _symmetry_equiv_pos_as_xyz
  1  'x, y, z'
loop_
 _atom_site_type_symbol
 _atom_site_label
 _atom_site_symmetry_multiplicity
 _atom_site_fract_x
 _atom_site_fract_y
 _atom_site_fract_z
 _atom_site_occupancy
  Cr  Cr0  1  0.00000000  0.00000000  0.61179912  1
  Cr  Cr1  1  0.99967475  0.49896425  0.61175112  1
  Cr  Cr2  1  0.50136100  0.99967475  0.61175112  1
  Cr  Cr3  1  0.49896425  0.50136100  0.61175112  1
  Te  Te4  1  0.99797520  0.33557726  0.43923221  1
  Te  Te5  1  0.66674581  0.00076643  0.32110189  1
  Te  Te6  1  0.33248777  0.66674581  0.32110189  1
  Te  Te7  1  0.00076643  0.33248777  0.32110189  1
  Te  Te8  1  0.33557726  0.66644754  0.43923221  1
  Te  Te9  1  0.66644754  0.99797520  0.43923221  1
  Mo  Mo10  1  0.00000000  0.00000000  0.38042077  1
  Mo  Mo11  1  0.33333300  0.33333300  0.38036294  1
  Mo  Mo12  1  0.66666700  0.66666700  0.37983003  1
  Se  Se13  1  0.16741513  0.16596792  0.66465655  1
  Se  Se14  1  0.66666700  0.66666700  0.66467294  1
  Se  Se15  1  0.66666700  0.66666700  0.55864572  1
  Se  Se16  1  0.66654691  0.16882067  0.55900671  1
  Se  Se17  1  0.16463343  0.66654691  0.55900671  1
  Se  Se18  1  0.16882067  0.16463343  0.55900671  1
  Se  Se19  1  0.16596792  0.66661795  0.66465655  1
  Se  Se20  1  0.66661795  0.16741513  0.66465655  1
