# generated using pymatgen
data_Pd7(S3O4)2
_symmetry_space_group_name_H-M   'P 1'
_cell_length_a   6.17115388
_cell_length_b   6.17115400
_cell_length_c   30.00000000
_cell_angle_alpha   90.00000000
_cell_angle_beta   90.00000000
_cell_angle_gamma   59.99999937
_symmetry_Int_Tables_number   1
_chemical_formula_structural   Pd7(S3O4)2
_chemical_formula_sum   'Pd7 S6 O8'
_cell_volume   989.42901990
_cell_formula_units_Z   1
loop_
 _symmetry_equiv_pos_site_id
 _symmetry_equiv_pos_as_xyz
  1  'x, y, z'
loop_
 _atom_site_type_symbol
 _atom_site_label
 _atom_site_symmetry_multiplicity
 _atom_site_fract_x
 _atom_site_fract_y
 _atom_site_fract_z
 _atom_site_occupancy
  Pd  Pd0  1  0.00000000  0.00000000  0.57928579  1
  Pd  Pd1  1  0.99981100  0.50022962  0.57931780  1
  Pd  Pd2  1  0.49995938  0.99981100  0.57931780  1
  Pd  Pd3  1  0.50022962  0.49995938  0.57931780  1
  Pd  Pd4  1  0.66666700  0.66666700  0.41518885  1
  Pd  Pd5  1  0.33333300  0.33333300  0.41623465  1
  Pd  Pd6  1  0.00000000  0.00000000  0.41618352  1
  S  S7  1  0.33654605  0.99657380  0.45654436  1
  S  S8  1  0.66648171  0.00244956  0.37477258  1
  S  S9  1  0.33106873  0.66648171  0.37477258  1
  S  S10  1  0.00244956  0.33106873  0.37477258  1
  S  S11  1  0.99657380  0.66688016  0.45654436  1
  S  S12  1  0.66688016  0.33654605  0.45654436  1
  O  O13  1  0.33333300  0.33333300  0.61175964  1
  O  O14  1  0.33282582  0.83269102  0.61186386  1
  O  O15  1  0.66666700  0.66666700  0.54670995  1
  O  O16  1  0.66658504  0.16542784  0.54674161  1
  O  O17  1  0.16798813  0.66658504  0.54674161  1
  O  O18  1  0.16542784  0.16798813  0.54674161  1
  O  O19  1  0.83448215  0.33282582  0.61186386  1
  O  O20  1  0.83269102  0.83448215  0.61186386  1
