# generated using pymatgen
data_Zr3(W2Se7)2
_symmetry_space_group_name_H-M   'P 1'
_cell_length_a   6.60492762
_cell_length_b   6.60492800
_cell_length_c   30.00000000
_cell_angle_alpha   90.00000000
_cell_angle_beta   90.00000000
_cell_angle_gamma   59.99999810
_symmetry_Int_Tables_number   1
_chemical_formula_structural   Zr3(W2Se7)2
_chemical_formula_sum   'Zr3 W4 Se14'
_cell_volume   1133.41257997
_cell_formula_units_Z   1
loop_
 _symmetry_equiv_pos_site_id
 _symmetry_equiv_pos_as_xyz
  1  'x, y, z'
loop_
 _atom_site_type_symbol
 _atom_site_label
 _atom_site_symmetry_multiplicity
 _atom_site_fract_x
 _atom_site_fract_y
 _atom_site_fract_z
 _atom_site_occupancy
  Zr  Zr0  1  0.00000000  0.00000000  0.60743359  1
  Zr  Zr1  1  0.33333300  0.33333300  0.60768114  1
  Zr  Zr2  1  0.66666700  0.66666700  0.60893561  1
  W  W3  1  0.50112636  0.49918645  0.38795009  1
  W  W4  1  0.49918645  0.99968718  0.38795009  1
  W  W5  1  0.00000000  0.00000000  0.38793109  1
  W  W6  1  0.99968718  0.50112636  0.38795009  1
  Se  Se7  1  0.66680525  0.00136064  0.66059646  1
  Se  Se8  1  0.00136064  0.33183411  0.66059646  1
  Se  Se9  1  0.99820542  0.66648106  0.55564869  1
  Se  Se10  1  0.66660784  0.16504248  0.44376694  1
  Se  Se11  1  0.66648106  0.33531352  0.55564869  1
  Se  Se12  1  0.33531352  0.99820542  0.55564869  1
  Se  Se13  1  0.16587835  0.16755986  0.33197970  1
  Se  Se14  1  0.16755986  0.66656279  0.33197970  1
  Se  Se15  1  0.66656279  0.16587835  0.33197970  1
  Se  Se16  1  0.66666700  0.66666700  0.33193596  1
  Se  Se17  1  0.16504248  0.16835068  0.44376694  1
  Se  Se18  1  0.16835068  0.66660784  0.44376694  1
  Se  Se19  1  0.33183411  0.66680525  0.66059646  1
  Se  Se20  1  0.66666700  0.66666700  0.44404396  1
