# generated using pymatgen
data_Zr4Te8(WO2)7
_symmetry_space_group_name_H-M   'P 1'
_cell_length_a   7.66684119
_cell_length_b   7.66684100
_cell_length_c   30.00000000
_cell_angle_alpha   90.00000000
_cell_angle_beta   90.00000000
_cell_angle_gamma   59.99999649
_symmetry_Int_Tables_number   1
_chemical_formula_structural   Zr4Te8(WO2)7
_chemical_formula_sum   'Zr4 Te8 W7 O14'
_cell_volume   1527.16089552
_cell_formula_units_Z   1
loop_
 _symmetry_equiv_pos_site_id
 _symmetry_equiv_pos_as_xyz
  1  'x, y, z'
loop_
 _atom_site_type_symbol
 _atom_site_label
 _atom_site_symmetry_multiplicity
 _atom_site_fract_x
 _atom_site_fract_y
 _atom_site_fract_z
 _atom_site_occupancy
  Zr  Zr0  1  0.49986767  0.50022497  0.38591853  1
  Zr  Zr1  1  0.50022497  0.99990736  0.38591853  1
  Zr  Zr2  1  0.99990736  0.49986767  0.38591853  1
  Zr  Zr3  1  0.00000000  0.00000000  0.39017526  1
  Te  Te4  1  0.66666700  0.66666700  0.44814636  1
  Te  Te5  1  0.16840836  0.66303437  0.44974076  1
  Te  Te6  1  0.16855827  0.16840836  0.44974076  1
  Te  Te7  1  0.66666700  0.66666700  0.32320206  1
  Te  Te8  1  0.67024184  0.16490803  0.32459397  1
  Te  Te9  1  0.16485113  0.67024184  0.32459397  1
  Te  Te10  1  0.16490803  0.16485113  0.32459397  1
  Te  Te11  1  0.66303437  0.16855827  0.44974076  1
  W  W12  1  0.00000000  0.00000000  0.59525271  1
  W  W13  1  0.14283814  0.28561750  0.59533785  1
  W  W14  1  0.57154436  0.14283814  0.59533785  1
  W  W15  1  0.28561750  0.57154436  0.59533785  1
  W  W16  1  0.71411714  0.42860922  0.59550385  1
  W  W17  1  0.42860922  0.85727364  0.59550385  1
  W  W18  1  0.85727364  0.71411714  0.59550385  1
  O  O19  1  0.80974485  0.95165927  0.55459268  1
  O  O20  1  0.95165927  0.23859588  0.55459268  1
  O  O21  1  0.09492054  0.52353845  0.55462467  1
  O  O22  1  0.52353845  0.38154101  0.55462467  1
  O  O23  1  0.23859588  0.80974485  0.55459268  1
  O  O24  1  0.80972238  0.95251742  0.63609408  1
  O  O25  1  0.38096242  0.09547802  0.63612874  1
  O  O26  1  0.66666700  0.66666700  0.63630737  1
  O  O27  1  0.23776020  0.80972238  0.63609408  1
  O  O28  1  0.66666700  0.66666700  0.55494987  1
  O  O29  1  0.09547802  0.52355956  0.63612874  1
  O  O30  1  0.95251742  0.23776020  0.63609408  1
  O  O31  1  0.38154101  0.09492054  0.55462467  1
  O  O32  1  0.52355956  0.38096242  0.63612874  1
