# generated using pymatgen
data_Te14W19O24
_symmetry_space_group_name_H-M   'P 1'
_cell_length_a   9.60193000
_cell_length_b   9.60192974
_cell_length_c   30.00000000
_cell_angle_alpha   90.00000000
_cell_angle_beta   90.00000000
_cell_angle_gamma   59.99999909
_symmetry_Int_Tables_number   1
_chemical_formula_structural   Te14W19O24
_chemical_formula_sum   'Te14 W19 O24'
_cell_volume   2395.34978832
_cell_formula_units_Z   1
loop_
 _symmetry_equiv_pos_site_id
 _symmetry_equiv_pos_as_xyz
  1  'x, y, z'
loop_
 _atom_site_type_symbol
 _atom_site_label
 _atom_site_symmetry_multiplicity
 _atom_site_fract_x
 _atom_site_fract_y
 _atom_site_fract_z
 _atom_site_occupancy
  Te  Te0  1  0.76082315  0.04847743  0.44811667  1
  Te  Te1  1  0.04797321  0.19013820  0.33001622  1
  Te  Te2  1  0.33333300  0.33333300  0.32985877  1
  Te  Te3  1  0.61902242  0.47643787  0.32986724  1
  Te  Te4  1  0.47643787  0.90453971  0.32986724  1
  Te  Te5  1  0.90453971  0.61902242  0.32986724  1
  Te  Te6  1  0.19013820  0.76188859  0.33001622  1
  Te  Te7  1  0.04847743  0.19069942  0.44811667  1
  Te  Te8  1  0.33333300  0.33333300  0.44830587  1
  Te  Te9  1  0.19069942  0.76082315  0.44811667  1
  Te  Te10  1  0.61898587  0.47672502  0.44830994  1
  Te  Te11  1  0.47672502  0.90428911  0.44830994  1
  Te  Te12  1  0.76188859  0.04797321  0.33001622  1
  Te  Te13  1  0.90428911  0.61898587  0.44830994  1
  W  W14  1  0.00000000  0.00000000  0.38930497  1
  W  W15  1  0.71427921  0.85702679  0.38913760  1
  W  W16  1  0.85702679  0.42869400  0.38913760  1
  W  W17  1  0.42869400  0.71427921  0.38913760  1
  W  W18  1  0.57091438  0.28654987  0.38914078  1
  W  W19  1  0.14253574  0.57091438  0.38914078  1
  W  W20  1  0.28654987  0.14253574  0.38914078  1
  W  W21  1  0.00000000  0.00000000  0.59582577  1
  W  W22  1  0.83319037  0.33329901  0.59514494  1
  W  W23  1  0.16648159  0.16680628  0.59516393  1
  W  W24  1  0.50000068  0.99999774  0.59476287  1
  W  W25  1  0.99999774  0.50000158  0.59476287  1
  W  W26  1  0.33333300  0.33333300  0.59466806  1
  W  W27  1  0.66671313  0.16648159  0.59516393  1
  W  W28  1  0.16680628  0.66671313  0.59516393  1
  W  W29  1  0.50000158  0.50000068  0.59476287  1
  W  W30  1  0.33329901  0.83350962  0.59514494  1
  W  W31  1  0.66666700  0.66666700  0.59460998  1
  W  W32  1  0.83350962  0.83319037  0.59514494  1
  O  O33  1  0.50067413  0.16629332  0.55273238  1
  O  O34  1  0.16629332  0.33303256  0.55273238  1
  O  O35  1  0.66725621  0.83348033  0.55273348  1
  O  O36  1  0.00039948  0.66729510  0.55299880  1
  O  O37  1  0.99967400  0.16580518  0.55353796  1
  O  O38  1  0.33230542  0.00039948  0.55299880  1
  O  O39  1  0.33303256  0.50067413  0.55273238  1
  O  O40  1  0.16580518  0.83452082  0.55353796  1
  O  O41  1  0.83452082  0.99967400  0.55353796  1
  O  O42  1  0.99985714  0.16753792  0.63745963  1
  O  O43  1  0.16678159  0.33378855  0.63681630  1
  O  O44  1  0.49942986  0.16678159  0.63681630  1
  O  O45  1  0.00011964  0.66600797  0.63701353  1
  O  O46  1  0.83348033  0.49926346  0.55273348  1
  O  O47  1  0.66729510  0.33230542  0.55299880  1
  O  O48  1  0.66600797  0.33387239  0.63701353  1
  O  O49  1  0.50058664  0.66634793  0.63677658  1
  O  O50  1  0.83306543  0.50058664  0.63677658  1
  O  O51  1  0.33387239  0.00011964  0.63701353  1
  O  O52  1  0.66634793  0.83306543  0.63677658  1
  O  O53  1  0.83260494  0.99985714  0.63745963  1
  O  O54  1  0.49926346  0.66725621  0.55273348  1
  O  O55  1  0.16753792  0.83260494  0.63745963  1
  O  O56  1  0.33378855  0.49942986  0.63681630  1
