# generated using pymatgen
data_Ni7Sn4(Se4O7)2
_symmetry_space_group_name_H-M   'P 1'
_cell_length_a   7.61479396
_cell_length_b   7.61479400
_cell_length_c   30.00000000
_cell_angle_alpha   90.00000000
_cell_angle_beta   90.00000000
_cell_angle_gamma   59.99999982
_symmetry_Int_Tables_number   1
_chemical_formula_structural   Ni7Sn4(Se4O7)2
_chemical_formula_sum   'Ni7 Sn4 Se8 O14'
_cell_volume   1506.49675759
_cell_formula_units_Z   1
loop_
 _symmetry_equiv_pos_site_id
 _symmetry_equiv_pos_as_xyz
  1  'x, y, z'
loop_
 _atom_site_type_symbol
 _atom_site_label
 _atom_site_symmetry_multiplicity
 _atom_site_fract_x
 _atom_site_fract_y
 _atom_site_fract_z
 _atom_site_occupancy
  Ni  Ni0  1  0.00000000  0.00000000  0.58097851  1
  Ni  Ni1  1  0.14326585  0.57107196  0.58061482  1
  Ni  Ni2  1  0.28566219  0.14326585  0.58061482  1
  Ni  Ni3  1  0.42890351  0.71387828  0.58061013  1
  Ni  Ni4  1  0.57107196  0.28566219  0.58061482  1
  Ni  Ni5  1  0.71387828  0.85721821  0.58061013  1
  Ni  Ni6  1  0.85721821  0.42890351  0.58061013  1
  Sn  Sn7  1  0.49911118  0.00033356  0.40528427  1
  Sn  Sn8  1  0.50055525  0.49911118  0.40528427  1
  Sn  Sn9  1  0.00000000  0.00000000  0.40538578  1
  Sn  Sn10  1  0.00033356  0.50055525  0.40528427  1
  Se  Se11  1  0.66681142  0.16715539  0.35144903  1
  Se  Se12  1  0.16603419  0.66681142  0.35144903  1
  Se  Se13  1  0.16715539  0.16603419  0.35144903  1
  Se  Se14  1  0.33333300  0.33333300  0.45909559  1
  Se  Se15  1  0.66666700  0.66666700  0.35137085  1
  Se  Se16  1  0.33397683  0.83071378  0.45875768  1
  Se  Se17  1  0.83530839  0.33397683  0.45875768  1
  Se  Se18  1  0.83071378  0.83530839  0.45875768  1
  O  O19  1  0.76070600  0.04793914  0.61143571  1
  O  O20  1  0.90512445  0.61881946  0.61135997  1
  O  O21  1  0.04793914  0.19135486  0.61143571  1
  O  O22  1  0.33333300  0.33333300  0.61145839  1
  O  O23  1  0.19135486  0.76070600  0.61143571  1
  O  O24  1  0.09488638  0.38120314  0.54954278  1
  O  O25  1  0.95306212  0.80942605  0.54982015  1
  O  O26  1  0.80942605  0.23751183  0.54982015  1
  O  O27  1  0.66666700  0.66666700  0.54948931  1
  O  O28  1  0.52391048  0.09488638  0.54954278  1
  O  O29  1  0.38120314  0.52391048  0.54954278  1
  O  O30  1  0.23751183  0.95306212  0.54982015  1
  O  O31  1  0.61881946  0.47605609  0.61135997  1
  O  O32  1  0.47605609  0.90512445  0.61135997  1
