# generated using pymatgen
data_Hf4Te8(WO2)7
_symmetry_space_group_name_H-M   'P 1'
_cell_length_a   7.65623971
_cell_length_b   7.65624000
_cell_length_c   30.00000000
_cell_angle_alpha   90.00000000
_cell_angle_beta   90.00000000
_cell_angle_gamma   59.99999874
_symmetry_Int_Tables_number   1
_chemical_formula_structural   Hf4Te8(WO2)7
_chemical_formula_sum   'Hf4 Te8 W7 O14'
_cell_volume   1522.94052023
_cell_formula_units_Z   1
loop_
 _symmetry_equiv_pos_site_id
 _symmetry_equiv_pos_as_xyz
  1  'x, y, z'
loop_
 _atom_site_type_symbol
 _atom_site_label
 _atom_site_symmetry_multiplicity
 _atom_site_fract_x
 _atom_site_fract_y
 _atom_site_fract_z
 _atom_site_occupancy
  Hf  Hf0  1  0.00000000  0.00000000  0.60767902  1
  Hf  Hf1  1  0.99941017  0.50054585  0.61397887  1
  Hf  Hf2  1  0.50004398  0.99941017  0.61397887  1
  Hf  Hf3  1  0.50054585  0.50004398  0.61397887  1
  Te  Te4  1  0.16718802  0.17106474  0.55033335  1
  Te  Te5  1  0.17106474  0.66174824  0.55033335  1
  Te  Te6  1  0.66174824  0.16718802  0.55033335  1
  Te  Te7  1  0.66666700  0.66666700  0.55242246  1
  Te  Te8  1  0.16539653  0.16343659  0.67376910  1
  Te  Te9  1  0.16343659  0.67116789  0.67376910  1
  Te  Te10  1  0.67116789  0.16539653  0.67376910  1
  Te  Te11  1  0.66666700  0.66666700  0.67579454  1
  W  W12  1  0.85727369  0.71407918  0.40457534  1
  W  W13  1  0.42864713  0.85727369  0.40457534  1
  W  W14  1  0.28558398  0.57156042  0.40473701  1
  W  W15  1  0.71407918  0.42864713  0.40457534  1
  W  W16  1  0.14285559  0.28558398  0.40473701  1
  W  W17  1  0.00000000  0.00000000  0.40480592  1
  W  W18  1  0.57156042  0.14285559  0.40473701  1
  O  O19  1  0.38158217  0.09492246  0.44549247  1
  O  O20  1  0.66666700  0.66666700  0.44518053  1
  O  O21  1  0.23857897  0.80979904  0.44551661  1
  O  O22  1  0.52349537  0.38158217  0.44549247  1
  O  O23  1  0.09492246  0.52349537  0.44549247  1
  O  O24  1  0.95162199  0.23857897  0.44551661  1
  O  O25  1  0.38098986  0.09549668  0.36391509  1
  O  O26  1  0.66666700  0.66666700  0.36371653  1
  O  O27  1  0.23776337  0.80975249  0.36395083  1
  O  O28  1  0.52351346  0.38098986  0.36391509  1
  O  O29  1  0.09549668  0.52351346  0.36391509  1
  O  O30  1  0.95248414  0.23776337  0.36395083  1
  O  O31  1  0.80975249  0.95248414  0.36395083  1
  O  O32  1  0.80979904  0.95162199  0.44551661  1
