# generated using pymatgen
data_Hf3Ti4(Te3S4)2
_symmetry_space_group_name_H-M   'P 1'
_cell_length_a   6.72904979
_cell_length_b   6.72904979
_cell_length_c   30.00000000
_cell_angle_alpha   90.00000000
_cell_angle_beta   90.00000000
_cell_angle_gamma   60.00000207
_symmetry_Int_Tables_number   1
_chemical_formula_structural   Hf3Ti4(Te3S4)2
_chemical_formula_sum   'Hf3 Ti4 Te6 S8'
_cell_volume   1176.41181865
_cell_formula_units_Z   1
loop_
 _symmetry_equiv_pos_site_id
 _symmetry_equiv_pos_as_xyz
  1  'x, y, z'
loop_
 _atom_site_type_symbol
 _atom_site_label
 _atom_site_symmetry_multiplicity
 _atom_site_fract_x
 _atom_site_fract_y
 _atom_site_fract_z
 _atom_site_occupancy
  Hf  Hf0  1  0.00000000  0.00000000  0.61192202  1
  Hf  Hf1  1  0.33333300  0.33333300  0.61154267  1
  Hf  Hf2  1  0.66666700  0.66666700  0.62217588  1
  Ti  Ti3  1  0.50107379  0.49943900  0.39304528  1
  Ti  Ti4  1  0.49943900  0.99948721  0.39304528  1
  Ti  Ti5  1  0.00000000  0.00000000  0.39983688  1
  Ti  Ti6  1  0.99948721  0.50107379  0.39304528  1
  Te  Te7  1  0.66626541  0.32146079  0.67687980  1
  Te  Te8  1  0.01227380  0.66626541  0.67687980  1
  Te  Te9  1  0.98744187  0.66730501  0.55401050  1
  Te  Te10  1  0.66730501  0.34525312  0.55401050  1
  Te  Te11  1  0.34525312  0.98744187  0.55401050  1
  Te  Te12  1  0.32146079  0.01227380  0.67687980  1
  S  S13  1  0.66183035  0.16489140  0.44503385  1
  S  S14  1  0.16432702  0.16459891  0.34547915  1
  S  S15  1  0.16459891  0.67107508  0.34547915  1
  S  S16  1  0.67107508  0.16432702  0.34547915  1
  S  S17  1  0.66666700  0.66666700  0.34342844  1
  S  S18  1  0.16489140  0.17327925  0.44503385  1
  S  S19  1  0.17327925  0.66183035  0.44503385  1
  S  S20  1  0.66666700  0.66666700  0.44317536  1
