# generated using pymatgen
data_Mo4Pt3Se14
_symmetry_space_group_name_H-M   'P 1'
_cell_length_a   6.56371977
_cell_length_b   6.56372000
_cell_length_c   30.00000000
_cell_angle_alpha   90.00000000
_cell_angle_beta   90.00000000
_cell_angle_gamma   59.99999885
_symmetry_Int_Tables_number   1
_chemical_formula_structural   Mo4Pt3Se14
_chemical_formula_sum   'Mo4 Pt3 Se14'
_cell_volume   1119.31405964
_cell_formula_units_Z   1
loop_
 _symmetry_equiv_pos_site_id
 _symmetry_equiv_pos_as_xyz
  1  'x, y, z'
loop_
 _atom_site_type_symbol
 _atom_site_label
 _atom_site_symmetry_multiplicity
 _atom_site_fract_x
 _atom_site_fract_y
 _atom_site_fract_z
 _atom_site_occupancy
  Mo  Mo0  1  0.99975069  0.49890028  0.38966723  1
  Mo  Mo1  1  0.49890028  0.50134903  0.38966723  1
  Mo  Mo2  1  0.50134903  0.99975069  0.38966723  1
  Mo  Mo3  1  0.00000000  0.00000000  0.38961742  1
  Pt  Pt4  1  0.00000000  0.00000000  0.59658528  1
  Pt  Pt5  1  0.66666700  0.66666700  0.59803616  1
  Pt  Pt6  1  0.33333300  0.33333300  0.59679511  1
  Se  Se7  1  0.66621973  0.99648004  0.55459024  1
  Se  Se8  1  0.33051728  0.00249844  0.64004756  1
  Se  Se9  1  0.66698428  0.33051728  0.64004756  1
  Se  Se10  1  0.00249844  0.66698428  0.64004756  1
  Se  Se11  1  0.99648004  0.33730023  0.55459024  1
  Se  Se12  1  0.66656438  0.16903550  0.44545600  1
  Se  Se13  1  0.16773848  0.16568984  0.33369850  1
  Se  Se14  1  0.16568984  0.66657269  0.33369850  1
  Se  Se15  1  0.66657269  0.16773848  0.33369850  1
  Se  Se16  1  0.66666700  0.66666700  0.33371528  1
  Se  Se17  1  0.16903550  0.16440112  0.44545600  1
  Se  Se18  1  0.16440112  0.66656438  0.44545600  1
  Se  Se19  1  0.33730023  0.66621973  0.55459024  1
  Se  Se20  1  0.66666700  0.66666700  0.44581818  1
