# generated using pymatgen
data_Mo7(Se3O4)2
_symmetry_space_group_name_H-M   'P 1'
_cell_length_a   5.69402100
_cell_length_b   5.69402089
_cell_length_c   30.00000000
_cell_angle_alpha   90.00000000
_cell_angle_beta   90.00000000
_cell_angle_gamma   60.00000518
_symmetry_Int_Tables_number   1
_chemical_formula_structural   Mo7(Se3O4)2
_chemical_formula_sum   'Mo7 Se6 O8'
_cell_volume   842.34505358
_cell_formula_units_Z   1
loop_
 _symmetry_equiv_pos_site_id
 _symmetry_equiv_pos_as_xyz
  1  'x, y, z'
loop_
 _atom_site_type_symbol
 _atom_site_label
 _atom_site_symmetry_multiplicity
 _atom_site_fract_x
 _atom_site_fract_y
 _atom_site_fract_z
 _atom_site_occupancy
  Mo  Mo0  1  0.00000000  0.00000000  0.59266454  1
  Mo  Mo1  1  0.99996396  0.49979982  0.59264797  1
  Mo  Mo2  1  0.50023622  0.99996396  0.59264797  1
  Mo  Mo3  1  0.49979982  0.50023622  0.59264797  1
  Mo  Mo4  1  0.66666700  0.66666700  0.39459640  1
  Mo  Mo5  1  0.33333300  0.33333300  0.39486172  1
  Mo  Mo6  1  0.00000000  0.00000000  0.39486582  1
  Se  Se7  1  0.99876663  0.33458493  0.45058413  1
  Se  Se8  1  0.66667380  0.00051150  0.33887576  1
  Se  Se9  1  0.33281470  0.66667380  0.33887576  1
  Se  Se10  1  0.00051150  0.33281470  0.33887576  1
  Se  Se11  1  0.66664844  0.99876663  0.45058413  1
  Se  Se12  1  0.33458493  0.66664844  0.45058413  1
  O  O13  1  0.16646793  0.66669612  0.63361437  1
  O  O14  1  0.16683695  0.16646793  0.63361437  1
  O  O15  1  0.66666700  0.66666700  0.55154129  1
  O  O16  1  0.66661904  0.16757694  0.55167362  1
  O  O17  1  0.16580502  0.66661904  0.55167362  1
  O  O18  1  0.16757694  0.16580502  0.55167362  1
  O  O19  1  0.66666700  0.66666700  0.63357765  1
  O  O20  1  0.66669612  0.16683695  0.63361437  1
