# generated using pymatgen
data_Zr4Pt3(Se3O4)2
_symmetry_space_group_name_H-M   'P 1'
_cell_length_a   6.50855168
_cell_length_b   6.50855200
_cell_length_c   30.00000000
_cell_angle_alpha   90.00000000
_cell_angle_beta   90.00000000
_cell_angle_gamma   59.99999835
_symmetry_Int_Tables_number   1
_chemical_formula_structural   Zr4Pt3(Se3O4)2
_chemical_formula_sum   'Zr4 Pt3 Se6 O8'
_cell_volume   1100.57746366
_cell_formula_units_Z   1
loop_
 _symmetry_equiv_pos_site_id
 _symmetry_equiv_pos_as_xyz
  1  'x, y, z'
loop_
 _atom_site_type_symbol
 _atom_site_label
 _atom_site_symmetry_multiplicity
 _atom_site_fract_x
 _atom_site_fract_y
 _atom_site_fract_z
 _atom_site_occupancy
  Zr  Zr0  1  0.00010355  0.50000238  0.41560689  1
  Zr  Zr1  1  0.50000240  0.49989405  0.41560689  1
  Zr  Zr2  1  0.49989404  0.00010356  0.41560689  1
  Zr  Zr3  1  0.00000000  0.00000001  0.41395914  1
  Pt  Pt4  1  0.00000000  1.00000000  0.59404712  1
  Pt  Pt5  1  0.66666672  0.66666673  0.59425212  1
  Pt  Pt6  1  0.33333328  0.33333328  0.59509375  1
  Se  Se7  1  0.00252155  0.66357032  0.55131780  1
  Se  Se8  1  0.33285859  0.66888360  0.63791429  1
  Se  Se9  1  0.66888366  0.99825785  0.63791431  1
  Se  Se10  1  0.99825775  0.33285855  0.63791431  1
  Se  Se11  1  0.33390818  0.00252145  0.55131780  1
  Se  Se12  1  0.66357026  0.33390824  0.55131782  1
  O  O13  1  0.83322271  0.83540670  0.44739037  1
  O  O14  1  0.16760687  0.16757110  0.38253833  1
  O  O15  1  0.16757107  0.66482250  0.38253832  1
  O  O16  1  0.66482250  0.16760685  0.38253832  1
  O  O17  1  0.66666682  0.66666683  0.38309572  1
  O  O18  1  0.33137014  0.83322269  0.44739036  1
  O  O19  1  0.33333323  0.33333314  0.44807111  1
  O  O20  1  0.83540667  0.33137018  0.44739036  1
