# generated using pymatgen
data_Hf7(Se3O4)2
_symmetry_space_group_name_H-M   'P 1'
_cell_length_a   6.43596682
_cell_length_b   6.43596700
_cell_length_c   30.00000000
_cell_angle_alpha   90.00000000
_cell_angle_beta   90.00000000
_cell_angle_gamma   60.00000421
_symmetry_Int_Tables_number   1
_chemical_formula_structural   Hf7(Se3O4)2
_chemical_formula_sum   'Hf7 Se6 O8'
_cell_volume   1076.16660191
_cell_formula_units_Z   1
loop_
 _symmetry_equiv_pos_site_id
 _symmetry_equiv_pos_as_xyz
  1  'x, y, z'
loop_
 _atom_site_type_symbol
 _atom_site_label
 _atom_site_symmetry_multiplicity
 _atom_site_fract_x
 _atom_site_fract_y
 _atom_site_fract_z
 _atom_site_occupancy
  Hf  Hf0  1  0.00020095  0.99999941  0.58614383  1
  Hf  Hf1  1  0.00017944  0.50010384  0.58559602  1
  Hf  Hf2  1  0.50024976  0.99986914  0.58560244  1
  Hf  Hf3  1  0.50041142  0.50003343  0.58560676  1
  Hf  Hf4  1  0.66666177  0.66666892  0.38754858  1
  Hf  Hf5  1  0.33332851  0.33333251  0.39476842  1
  Hf  Hf6  1  0.00000010  0.99999772  0.39477810  1
  Se  Se7  1  0.33929810  0.99409810  0.44760150  1
  Se  Se8  1  0.00563543  0.66674745  0.33690932  1
  Se  Se9  1  0.66674462  0.32761433  0.33690833  1
  Se  Se10  1  0.32761254  0.00563831  0.33690837  1
  Se  Se11  1  0.99410165  0.66659608  0.44760284  1
  Se  Se12  1  0.66659212  0.33930190  0.44760210  1
  O  O13  1  0.33363374  0.33334642  0.61814674  1
  O  O14  1  0.33426430  0.83298650  0.61836631  1
  O  O15  1  0.66698126  0.66665959  0.55304274  1
  O  O16  1  0.66771653  0.16554828  0.55335455  1
  O  O17  1  0.16722945  0.66751494  0.55335549  1
  O  O18  1  0.16573192  0.16694730  0.55335817  1
  O  O19  1  0.83322334  0.33407575  0.61836647  1
  O  O20  1  0.83320308  0.83292009  0.61836994  1
