# generated using pymatgen
data_Te14Mo12W7O24
_symmetry_space_group_name_H-M   'P 1'
_cell_length_a   9.57901943
_cell_length_b   9.57901943
_cell_length_c   30.00000000
_cell_angle_alpha   90.00000000
_cell_angle_beta   90.00000000
_cell_angle_gamma   60.00000397
_symmetry_Int_Tables_number   1
_chemical_formula_structural   Te14Mo12W7O24
_chemical_formula_sum   'Te14 Mo12 W7 O24'
_cell_volume   2383.93281478
_cell_formula_units_Z   1
loop_
 _symmetry_equiv_pos_site_id
 _symmetry_equiv_pos_as_xyz
  1  'x, y, z'
loop_
 _atom_site_type_symbol
 _atom_site_label
 _atom_site_symmetry_multiplicity
 _atom_site_fract_x
 _atom_site_fract_y
 _atom_site_fract_z
 _atom_site_occupancy
  Te  Te0  1  0.80984967  0.95239901  0.44914710  1
  Te  Te1  1  0.66666700  0.66666700  0.44911228  1
  Te  Te2  1  0.23775132  0.80984967  0.44914710  1
  Te  Te3  1  0.52415072  0.38173077  0.44890013  1
  Te  Te4  1  0.09411851  0.52415072  0.44890013  1
  Te  Te5  1  0.95239901  0.23775132  0.44914710  1
  Te  Te6  1  0.80943180  0.95268438  0.33042477  1
  Te  Te7  1  0.38124018  0.09505803  0.33056319  1
  Te  Te8  1  0.66666700  0.66666700  0.33032669  1
  Te  Te9  1  0.23788382  0.80943180  0.33042477  1
  Te  Te10  1  0.52370179  0.38124018  0.33056319  1
  Te  Te11  1  0.09505803  0.52370179  0.33056319  1
  Te  Te12  1  0.95268438  0.23788382  0.33042477  1
  Te  Te13  1  0.38173077  0.09411851  0.44890013  1
  Mo  Mo14  1  0.00000000  0.00000000  0.59385476  1
  Mo  Mo15  1  0.66666700  0.66666700  0.59387089  1
  Mo  Mo16  1  0.00005098  0.50019553  0.59437759  1
  Mo  Mo17  1  0.16649981  0.16685971  0.59437190  1
  Mo  Mo18  1  0.16685971  0.66664149  0.59437190  1
  Mo  Mo19  1  0.33333300  0.33333300  0.59504867  1
  Mo  Mo20  1  0.49975349  0.00005098  0.59437759  1
  Mo  Mo21  1  0.33332016  0.83330196  0.59398426  1
  Mo  Mo22  1  0.50019553  0.49975349  0.59437759  1
  Mo  Mo23  1  0.66664149  0.16649981  0.59437190  1
  Mo  Mo24  1  0.83337689  0.33332016  0.59398426  1
  Mo  Mo25  1  0.83330196  0.83337689  0.59398426  1
  W  W26  1  0.57187897  0.14283449  0.38988861  1
  W  W27  1  0.28528654  0.57187897  0.38988861  1
  W  W28  1  0.71487698  0.42871531  0.38975896  1
  W  W29  1  0.00000000  0.00000000  0.38982120  1
  W  W30  1  0.85640771  0.71487698  0.38975896  1
  W  W31  1  0.14283449  0.28528654  0.38988861  1
  W  W32  1  0.42871531  0.85640771  0.38975896  1
  O  O33  1  0.16678525  0.00058680  0.55208419  1
  O  O34  1  0.33380166  0.66558922  0.55232277  1
  O  O35  1  0.99966362  0.83393180  0.63581500  1
  O  O36  1  0.99935949  0.33354489  0.63603265  1
  O  O37  1  0.49919012  0.33295297  0.55284781  1
  O  O38  1  0.66558922  0.00060912  0.55232277  1
  O  O39  1  0.49959693  0.83398424  0.55204972  1
  O  O40  1  0.66641884  0.49959693  0.55204972  1
  O  O41  1  0.83262795  0.16678525  0.55208419  1
  O  O42  1  0.83398424  0.66641884  0.55204972  1
  O  O43  1  0.00060912  0.33380166  0.55232277  1
  O  O44  1  0.00058680  0.83262795  0.55208419  1
  O  O45  1  0.33295297  0.16785690  0.55284781  1
  O  O46  1  0.16640458  0.99966362  0.63581500  1
  O  O47  1  0.33313942  0.16595005  0.63648066  1
  O  O48  1  0.33354489  0.66709562  0.63603265  1
  O  O49  1  0.16785690  0.49919012  0.55284781  1
  O  O50  1  0.66709562  0.99935949  0.63603265  1
  O  O51  1  0.50008634  0.83272555  0.63581919  1
  O  O52  1  0.66718811  0.50008634  0.63581919  1
  O  O53  1  0.83393180  0.16640458  0.63581500  1
  O  O54  1  0.83272555  0.66718811  0.63581919  1
  O  O55  1  0.16595005  0.50091053  0.63648066  1
  O  O56  1  0.50091053  0.33313942  0.63648066  1
