# generated using pymatgen
data_Ti3W4(S3O4)2
_symmetry_space_group_name_H-M   'P 1'
_cell_length_a   5.78980000
_cell_length_b   5.78979924
_cell_length_c   30.00000000
_cell_angle_alpha   90.00000000
_cell_angle_beta   90.00000000
_cell_angle_gamma   59.99999563
_symmetry_Int_Tables_number   1
_chemical_formula_structural   Ti3W4(S3O4)2
_chemical_formula_sum   'Ti3 W4 S6 O8'
_cell_volume   870.92134342
_cell_formula_units_Z   1
loop_
 _symmetry_equiv_pos_site_id
 _symmetry_equiv_pos_as_xyz
  1  'x, y, z'
loop_
 _atom_site_type_symbol
 _atom_site_label
 _atom_site_symmetry_multiplicity
 _atom_site_fract_x
 _atom_site_fract_y
 _atom_site_fract_z
 _atom_site_occupancy
  Ti  Ti0  1  0.00000000  0.00000000  0.59647719  1
  Ti  Ti1  1  0.33333300  0.33333300  0.59650505  1
  Ti  Ti2  1  0.66666700  0.66666700  0.59696720  1
  W  W3  1  0.49983648  0.50020489  0.40715885  1
  W  W4  1  0.50020489  0.99995863  0.40715885  1
  W  W5  1  0.00000000  0.00000000  0.40714843  1
  W  W6  1  0.99995863  0.49983648  0.40715885  1
  S  S7  1  0.66667595  0.33279282  0.64501663  1
  S  S8  1  0.00053123  0.66667595  0.64501663  1
  S  S9  1  0.66666059  0.99912045  0.54856576  1
  S  S10  1  0.33421896  0.66666059  0.54856576  1
  S  S11  1  0.99912045  0.33421896  0.54856576  1
  S  S12  1  0.33279282  0.00053123  0.64501663  1
  O  O13  1  0.66667977  0.16738883  0.44783746  1
  O  O14  1  0.16682416  0.16650273  0.36638800  1
  O  O15  1  0.16650273  0.66667411  0.36638800  1
  O  O16  1  0.66667411  0.16682416  0.36638800  1
  O  O17  1  0.66666700  0.66666700  0.36641289  1
  O  O18  1  0.16738883  0.16593240  0.44783746  1
  O  O19  1  0.16593240  0.66667977  0.44783746  1
  O  O20  1  0.66666700  0.66666700  0.44793515  1
