# generated using pymatgen
data_ZrTi(TeS)2
_symmetry_space_group_name_H-M   'P 1'
_cell_length_a   3.65418608
_cell_length_b   3.65418700
_cell_length_c   30.00000000
_cell_angle_alpha   90.00000000
_cell_angle_beta   90.00000000
_cell_angle_gamma   60.00000074
_symmetry_Int_Tables_number   1
_chemical_formula_structural   ZrTi(TeS)2
_chemical_formula_sum   'Zr1 Ti1 Te2 S2'
_cell_volume   346.92317867
_cell_formula_units_Z   1
loop_
 _symmetry_equiv_pos_site_id
 _symmetry_equiv_pos_as_xyz
  1  'x, y, z'
loop_
 _atom_site_type_symbol
 _atom_site_label
 _atom_site_symmetry_multiplicity
 _atom_site_fract_x
 _atom_site_fract_y
 _atom_site_fract_z
 _atom_site_occupancy
  Zr  Zr0  1  0.00000000  0.00000000  0.38593796  1
  Ti  Ti1  1  0.00000000  0.00000000  0.62105599  1
  Te  Te2  1  0.33333300  0.33333300  0.56116587  1
  Te  Te3  1  0.33333300  0.33333300  0.68180165  1
  S  S4  1  0.33333300  0.33333300  0.33438262  1
  S  S5  1  0.33333300  0.33333300  0.43769591  1
