# generated using pymatgen
data_Sn4Pt3(Se3O4)2
_symmetry_space_group_name_H-M   'P 1'
_cell_length_a   6.46788773
_cell_length_b   6.46788773
_cell_length_c   30.00000000
_cell_angle_alpha   90.00000000
_cell_angle_beta   90.00000000
_cell_angle_gamma   60.00000281
_symmetry_Int_Tables_number   1
_chemical_formula_structural   Sn4Pt3(Se3O4)2
_chemical_formula_sum   'Sn4 Pt3 Se6 O8'
_cell_volume   1086.86810365
_cell_formula_units_Z   1
loop_
 _symmetry_equiv_pos_site_id
 _symmetry_equiv_pos_as_xyz
  1  'x, y, z'
loop_
 _atom_site_type_symbol
 _atom_site_label
 _atom_site_symmetry_multiplicity
 _atom_site_fract_x
 _atom_site_fract_y
 _atom_site_fract_z
 _atom_site_occupancy
  Sn  Sn0  1  0.00017655  0.50025175  0.41554250  1
  Sn  Sn1  1  0.50025175  0.49957170  0.41554250  1
  Sn  Sn2  1  0.49957170  0.00017655  0.41554250  1
  Sn  Sn3  1  0.00000000  0.00000000  0.41518604  1
  Pt  Pt4  1  0.00000000  0.00000000  0.59172172  1
  Pt  Pt5  1  0.66666700  0.66666700  0.59186022  1
  Pt  Pt6  1  0.33333300  0.33333300  0.59293293  1
  Se  Se7  1  0.00317976  0.66308919  0.54864911  1
  Se  Se8  1  0.33302489  0.66921998  0.63611814  1
  Se  Se9  1  0.66921998  0.99775513  0.63611814  1
  Se  Se10  1  0.99775513  0.33302489  0.63611814  1
  Se  Se11  1  0.33373104  0.00317976  0.54864911  1
  Se  Se12  1  0.66308919  0.33373104  0.54864911  1
  O  O13  1  0.83205252  0.83513559  0.44927203  1
  O  O14  1  0.16741527  0.16641269  0.38186520  1
  O  O15  1  0.16641269  0.66617303  0.38186520  1
  O  O16  1  0.66617303  0.16741527  0.38186520  1
  O  O17  1  0.66666700  0.66666700  0.38204747  1
  O  O18  1  0.33281088  0.83205252  0.44927203  1
  O  O19  1  0.33333300  0.33333300  0.44957666  1
  O  O20  1  0.83513559  0.33281088  0.44927203  1
