# generated using pymatgen
data_Zr3(W2S7)2
_symmetry_space_group_name_H-M   'P 1'
_cell_length_a   6.27883868
_cell_length_b   6.27883900
_cell_length_c   30.00000000
_cell_angle_alpha   90.00000000
_cell_angle_beta   90.00000000
_cell_angle_gamma   60.00000359
_symmetry_Int_Tables_number   1
_chemical_formula_structural   Zr3(W2S7)2
_chemical_formula_sum   'Zr3 W4 S14'
_cell_volume   1024.26085281
_cell_formula_units_Z   1
loop_
 _symmetry_equiv_pos_site_id
 _symmetry_equiv_pos_as_xyz
  1  'x, y, z'
loop_
 _atom_site_type_symbol
 _atom_site_label
 _atom_site_symmetry_multiplicity
 _atom_site_fract_x
 _atom_site_fract_y
 _atom_site_fract_z
 _atom_site_occupancy
  Zr  Zr0  1  0.66666700  0.66666700  0.38565413  1
  Zr  Zr1  1  0.33333300  0.33333300  0.39785425  1
  Zr  Zr2  1  0.00000000  0.00000000  0.39844380  1
  W  W3  1  0.00000000  0.00000000  0.60727314  1
  W  W4  1  0.99990134  0.49948862  0.60727227  1
  W  W5  1  0.50061004  0.99990134  0.60727227  1
  W  W6  1  0.49948862  0.50061004  0.60727227  1
  S  S7  1  0.99061369  0.34311954  0.44567200  1
  S  S8  1  0.66679314  0.01002618  0.34220116  1
  S  S9  1  0.32318068  0.66679314  0.34220116  1
  S  S10  1  0.01002618  0.32318068  0.34220116  1
  S  S11  1  0.66663683  0.16712572  0.66010365  1
  S  S12  1  0.34311954  0.66626677  0.44567200  1
  S  S13  1  0.16623846  0.66663683  0.66010365  1
  S  S14  1  0.16712572  0.16623846  0.66010365  1
  S  S15  1  0.66666700  0.66666700  0.55437201  1
  S  S16  1  0.66653175  0.16776439  0.55457227  1
  S  S17  1  0.16570486  0.66653175  0.55457227  1
  S  S18  1  0.16776439  0.16570486  0.55457227  1
  S  S19  1  0.66666700  0.66666700  0.66010960  1
  S  S20  1  0.66626677  0.99061369  0.44567200  1
