# generated using pymatgen
data_SnPbO4
_symmetry_space_group_name_H-M   'P 1'
_cell_length_a   5.72839424
_cell_length_b   5.72839424
_cell_length_c   30.00000000
_cell_angle_alpha   90.00000000
_cell_angle_beta   90.00000000
_cell_angle_gamma   59.99999727
_symmetry_Int_Tables_number   1
_chemical_formula_structural   SnPbO4
_chemical_formula_sum   'Sn3 Pb3 O12'
_cell_volume   852.54570865
_cell_formula_units_Z   3
loop_
 _symmetry_equiv_pos_site_id
 _symmetry_equiv_pos_as_xyz
  1  'x, y, z'
loop_
 _atom_site_type_symbol
 _atom_site_label
 _atom_site_symmetry_multiplicity
 _atom_site_fract_x
 _atom_site_fract_y
 _atom_site_fract_z
 _atom_site_occupancy
  Sn  Sn0  1  0.66666700  0.66666700  0.42362128  1
  Sn  Sn1  1  0.33333300  0.33333300  0.42362128  1
  Sn  Sn2  1  0.00000000  0.00000000  0.42362128  1
  Pb  Pb3  1  0.00000000  0.00000000  0.57863137  1
  Pb  Pb4  1  0.33333300  0.33333300  0.57863137  1
  Pb  Pb5  1  0.66666700  0.66666700  0.57863137  1
  O  O6  1  0.33333300  0.66666700  0.45608583  1
  O  O7  1  0.00000000  0.66666700  0.39104932  1
  O  O8  1  0.66666700  0.33333300  0.39104932  1
  O  O9  1  0.33333300  0.00000000  0.39104932  1
  O  O10  1  0.00000000  0.33333300  0.61601020  1
  O  O11  1  0.66666700  0.00000000  0.61601020  1
  O  O12  1  0.33333300  0.66666700  0.61601020  1
  O  O13  1  0.00000000  0.66666700  0.54125300  1
  O  O14  1  0.66666700  0.33333300  0.54125300  1
  O  O15  1  0.33333300  0.00000000  0.54125300  1
  O  O16  1  0.66666700  0.00000000  0.45608583  1
  O  O17  1  0.00000000  0.33333300  0.45608583  1
