# generated using pymatgen
data_Te6Mo3(PdO2)4
_symmetry_space_group_name_H-M   'P 1'
_cell_length_a   6.16595640
_cell_length_b   6.16595600
_cell_length_c   30.00000000
_cell_angle_alpha   90.00000000
_cell_angle_beta   90.00000000
_cell_angle_gamma   60.00000216
_symmetry_Int_Tables_number   1
_chemical_formula_structural   Te6Mo3(PdO2)4
_chemical_formula_sum   'Te6 Mo3 Pd4 O8'
_cell_volume   987.76302887
_cell_formula_units_Z   1
loop_
 _symmetry_equiv_pos_site_id
 _symmetry_equiv_pos_as_xyz
  1  'x, y, z'
loop_
 _atom_site_type_symbol
 _atom_site_label
 _atom_site_symmetry_multiplicity
 _atom_site_fract_x
 _atom_site_fract_y
 _atom_site_fract_z
 _atom_site_occupancy
  Te  Te0  1  0.99715507  0.66737506  0.45332635  1
  Te  Te1  1  0.33546988  0.99715507  0.45332635  1
  Te  Te2  1  0.00151044  0.66634192  0.33354807  1
  Te  Te3  1  0.66634192  0.33214764  0.33354807  1
  Te  Te4  1  0.33214764  0.00151044  0.33354807  1
  Te  Te5  1  0.66737506  0.33546988  0.45332635  1
  Mo  Mo6  1  0.66666700  0.66666700  0.39293038  1
  Mo  Mo7  1  0.33333300  0.33333300  0.39384355  1
  Mo  Mo8  1  0.00000000  0.00000000  0.39365930  1
  Pd  Pd9  1  0.00000000  0.00000000  0.58204214  1
  Pd  Pd10  1  0.50017361  0.50010821  0.58214122  1
  Pd  Pd11  1  0.50010821  0.99971818  0.58214122  1
  Pd  Pd12  1  0.99971818  0.50017361  0.58214122  1
  O  O13  1  0.33238049  0.83253657  0.61478687  1
  O  O14  1  0.83508194  0.33238049  0.61478687  1
  O  O15  1  0.66666700  0.66666700  0.54921288  1
  O  O16  1  0.66644097  0.16554159  0.54912747  1
  O  O17  1  0.16801844  0.66644097  0.54912747  1
  O  O18  1  0.16554159  0.16801844  0.54912747  1
  O  O19  1  0.33333300  0.33333300  0.61459880  1
  O  O20  1  0.83253657  0.83508194  0.61478687  1
