# generated using pymatgen
data_Hf4Ni7(Se4O7)2
_symmetry_space_group_name_H-M   'P 1'
_cell_length_a   7.52281620
_cell_length_b   7.52281600
_cell_length_c   30.00000000
_cell_angle_alpha   90.00000000
_cell_angle_beta   90.00000000
_cell_angle_gamma   60.00000090
_symmetry_Int_Tables_number   1
_chemical_formula_structural   Hf4Ni7(Se4O7)2
_chemical_formula_sum   'Hf4 Ni7 Se8 O14'
_cell_volume   1470.32310298
_cell_formula_units_Z   1
loop_
 _symmetry_equiv_pos_site_id
 _symmetry_equiv_pos_as_xyz
  1  'x, y, z'
loop_
 _atom_site_type_symbol
 _atom_site_label
 _atom_site_symmetry_multiplicity
 _atom_site_fract_x
 _atom_site_fract_y
 _atom_site_fract_z
 _atom_site_occupancy
  Hf  Hf0  1  0.00000000  0.00000000  0.59521657  1
  Hf  Hf1  1  0.99947104  0.49962301  0.59567808  1
  Hf  Hf2  1  0.50090595  0.99947104  0.59567808  1
  Hf  Hf3  1  0.49962301  0.50090595  0.59567808  1
  Ni  Ni4  1  0.85682627  0.42882522  0.41851274  1
  Ni  Ni5  1  0.71434851  0.85682627  0.41851274  1
  Ni  Ni6  1  0.42882522  0.71434851  0.41851274  1
  Ni  Ni7  1  0.28587654  0.14283179  0.41852785  1
  Ni  Ni8  1  0.14283179  0.57129166  0.41852785  1
  Ni  Ni9  1  0.00000000  0.00000000  0.41815002  1
  Ni  Ni10  1  0.57129166  0.28587654  0.41852785  1
  Se  Se11  1  0.83338668  0.33301469  0.64819351  1
  Se  Se12  1  0.33333300  0.33333300  0.64818501  1
  Se  Se13  1  0.33301469  0.83359763  0.64819351  1
  Se  Se14  1  0.66666700  0.66666700  0.54348879  1
  Se  Se15  1  0.66594167  0.16745312  0.54378237  1
  Se  Se16  1  0.16660620  0.66594167  0.54378237  1
  Se  Se17  1  0.16745312  0.16660620  0.54378237  1
  Se  Se18  1  0.83359763  0.83338668  0.64819351  1
  O  O19  1  0.76262262  0.04695961  0.44970553  1
  O  O20  1  0.61898362  0.47590997  0.44997619  1
  O  O21  1  0.47590997  0.90510641  0.44997619  1
  O  O22  1  0.33333300  0.33333300  0.45005719  1
  O  O23  1  0.19041777  0.76262262  0.44970553  1
  O  O24  1  0.09497216  0.38120989  0.38731677  1
  O  O25  1  0.52381795  0.09497216  0.38731677  1
  O  O26  1  0.80884720  0.23893350  0.38717228  1
  O  O27  1  0.66666700  0.66666700  0.38724049  1
  O  O28  1  0.38120989  0.52381795  0.38731677  1
  O  O29  1  0.23893350  0.95221930  0.38717228  1
  O  O30  1  0.90510641  0.61898362  0.44997619  1
  O  O31  1  0.95221930  0.80884720  0.38717228  1
  O  O32  1  0.04695961  0.19041777  0.44970553  1
