# generated using pymatgen
data_Pd3W4(Se3S4)2
_symmetry_space_group_name_H-M   'P 1'
_cell_length_a   6.41705109
_cell_length_b   6.41705109
_cell_length_c   30.00000000
_cell_angle_alpha   90.00000000
_cell_angle_beta   90.00000000
_cell_angle_gamma   60.00000937
_symmetry_Int_Tables_number   1
_chemical_formula_structural   Pd3W4(Se3S4)2
_chemical_formula_sum   'Pd3 W4 Se6 S8'
_cell_volume   1069.85007522
_cell_formula_units_Z   1
loop_
 _symmetry_equiv_pos_site_id
 _symmetry_equiv_pos_as_xyz
  1  'x, y, z'
loop_
 _atom_site_type_symbol
 _atom_site_label
 _atom_site_symmetry_multiplicity
 _atom_site_fract_x
 _atom_site_fract_y
 _atom_site_fract_z
 _atom_site_occupancy
  Pd  Pd0  1  0.00000000  0.00000000  0.59547672  1
  Pd  Pd1  1  0.33333300  0.33333300  0.59570070  1
  Pd  Pd2  1  0.66666700  0.66666700  0.59730086  1
  W  W3  1  0.50075475  0.49938751  0.39370462  1
  W  W4  1  0.49938751  0.99985774  0.39370462  1
  W  W5  1  0.00000000  0.00000000  0.39367543  1
  W  W6  1  0.99985774  0.50075475  0.39370462  1
  Se  Se7  1  0.66703245  0.00350142  0.64051214  1
  Se  Se8  1  0.00350142  0.32946613  0.64051214  1
  Se  Se9  1  0.99533190  0.66620809  0.55215331  1
  Se  Se10  1  0.66620809  0.33846001  0.55215331  1
  Se  Se11  1  0.33846001  0.99533190  0.55215331  1
  Se  Se12  1  0.32946613  0.66703245  0.64051214  1
  S  S13  1  0.66661539  0.16515143  0.44551181  1
  S  S14  1  0.16609872  0.16728872  0.34169537  1
  S  S15  1  0.16728872  0.66661357  0.34169537  1
  S  S16  1  0.66661357  0.16609872  0.34169537  1
  S  S17  1  0.66666700  0.66666700  0.34174153  1
  S  S18  1  0.16515143  0.16823418  0.44551181  1
  S  S19  1  0.16823418  0.66661539  0.44551181  1
  S  S20  1  0.66666700  0.66666700  0.44580402  1
