# generated using pymatgen
data_HfS2
_symmetry_space_group_name_H-M   'P 1'
_cell_length_a   6.23045448
_cell_length_b   6.23045448
_cell_length_c   30.00000000
_cell_angle_alpha   90.00000000
_cell_angle_beta   90.00000000
_cell_angle_gamma   59.99999486
_symmetry_Int_Tables_number   1
_chemical_formula_structural   HfS2
_chemical_formula_sum   'Hf6 S12'
_cell_volume   1008.53580067
_cell_formula_units_Z   6
loop_
 _symmetry_equiv_pos_site_id
 _symmetry_equiv_pos_as_xyz
  1  'x, y, z'
loop_
 _atom_site_type_symbol
 _atom_site_label
 _atom_site_symmetry_multiplicity
 _atom_site_fract_x
 _atom_site_fract_y
 _atom_site_fract_z
 _atom_site_occupancy
  Hf  Hf0  1  0.00000000  0.00000000  0.60662834  1
  Hf  Hf1  1  0.33333300  0.33333300  0.60662834  1
  Hf  Hf2  1  0.66666700  0.66666700  0.60662834  1
  Hf  Hf3  1  0.66666700  0.66666700  0.38940221  1
  Hf  Hf4  1  0.33333300  0.33333300  0.38940221  1
  Hf  Hf5  1  0.00000000  0.00000000  0.38940221  1
  S  S6  1  0.33333300  0.00000000  0.44077188  1
  S  S7  1  0.00000000  0.66666700  0.33782209  1
  S  S8  1  0.66666700  0.33333300  0.33782209  1
  S  S9  1  0.33333300  0.00000000  0.33782209  1
  S  S10  1  0.00000000  0.33333300  0.65534765  1
  S  S11  1  0.66666700  0.00000000  0.65534765  1
  S  S12  1  0.33333300  0.66666700  0.65534765  1
  S  S13  1  0.00000000  0.66666700  0.55802782  1
  S  S14  1  0.66666700  0.33333300  0.55802782  1
  S  S15  1  0.33333300  0.00000000  0.55802782  1
  S  S16  1  0.66666700  0.33333300  0.44077188  1
  S  S17  1  0.00000000  0.66666700  0.44077188  1
