# generated using pymatgen
data_Zr4Ti3(Te3O4)2
_symmetry_space_group_name_H-M   'P 1'
_cell_length_a   6.50088290
_cell_length_b   6.50088300
_cell_length_c   30.00000000
_cell_angle_alpha   90.00000000
_cell_angle_beta   90.00000000
_cell_angle_gamma   60.00000459
_symmetry_Int_Tables_number   1
_chemical_formula_structural   Zr4Ti3(Te3O4)2
_chemical_formula_sum   'Zr4 Ti3 Te6 O8'
_cell_volume   1097.98548685
_cell_formula_units_Z   1
loop_
 _symmetry_equiv_pos_site_id
 _symmetry_equiv_pos_as_xyz
  1  'x, y, z'
loop_
 _atom_site_type_symbol
 _atom_site_label
 _atom_site_symmetry_multiplicity
 _atom_site_fract_x
 _atom_site_fract_y
 _atom_site_fract_z
 _atom_site_occupancy
  Zr  Zr0  1  0.00000000  0.00000000  0.58953820  1
  Zr  Zr1  1  0.99993691  0.49999784  0.58852650  1
  Zr  Zr2  1  0.50006525  0.99993691  0.58852650  1
  Zr  Zr3  1  0.49999784  0.50006525  0.58852650  1
  Ti  Ti4  1  0.66666700  0.66666700  0.38301081  1
  Ti  Ti5  1  0.33333300  0.33333300  0.38483025  1
  Ti  Ti6  1  0.00000000  0.00000000  0.38509765  1
  Te  Te7  1  0.33610157  0.99756574  0.44331111  1
  Te  Te8  1  0.00170702  0.66694433  0.32499799  1
  Te  Te9  1  0.66694433  0.33134865  0.32499799  1
  Te  Te10  1  0.33134865  0.00170702  0.32499799  1
  Te  Te11  1  0.99756574  0.66633269  0.44331111  1
  Te  Te12  1  0.66633269  0.33610157  0.44331111  1
  O  O13  1  0.33333300  0.33333300  0.62109776  1
  O  O14  1  0.33444541  0.83279962  0.62144328  1
  O  O15  1  0.66666700  0.66666700  0.55599783  1
  O  O16  1  0.66791279  0.16535358  0.55639529  1
  O  O17  1  0.16673463  0.66791279  0.55639529  1
  O  O18  1  0.16535358  0.16673463  0.55639529  1
  O  O19  1  0.83275397  0.33444541  0.62144328  1
  O  O20  1  0.83279962  0.83275397  0.62144328  1
