# generated using pymatgen
data_Cr3Te6(PdO2)4
_symmetry_space_group_name_H-M   'P 1'
_cell_length_a   6.09907758
_cell_length_b   6.09907800
_cell_length_c   30.00000000
_cell_angle_alpha   90.00000000
_cell_angle_beta   90.00000000
_cell_angle_gamma   59.99999771
_symmetry_Int_Tables_number   1
_chemical_formula_structural   Cr3Te6(PdO2)4
_chemical_formula_sum   'Cr3 Te6 Pd4 O8'
_cell_volume   966.45184910
_cell_formula_units_Z   1
loop_
 _symmetry_equiv_pos_site_id
 _symmetry_equiv_pos_as_xyz
  1  'x, y, z'
loop_
 _atom_site_type_symbol
 _atom_site_label
 _atom_site_symmetry_multiplicity
 _atom_site_fract_x
 _atom_site_fract_y
 _atom_site_fract_z
 _atom_site_occupancy
  Cr  Cr0  1  0.66668297  0.66663860  0.39678928  1
  Cr  Cr1  1  0.33332065  0.33336120  0.39794157  1
  Cr  Cr2  1  0.00014293  0.00000010  0.39773606  1
  Te  Te3  1  0.66747110  0.99688882  0.45352567  1
  Te  Te4  1  0.99689801  0.33569797  0.45353629  1
  Te  Te5  1  0.66637078  0.00162873  0.34130084  1
  Te  Te6  1  0.33206618  0.66631506  0.34129007  1
  Te  Te7  1  0.00163912  0.33205592  0.34128992  1
  Te  Te8  1  0.33570824  0.66741394  0.45353632  1
  Pd  Pd9  1  0.99999967  0.00000013  0.58151132  1
  Pd  Pd10  1  0.50003581  0.50023898  0.58164876  1
  Pd  Pd11  1  0.50023953  0.99972515  0.58164867  1
  Pd  Pd12  1  0.99972509  0.50003557  0.58164877  1
  O  O13  1  0.33217835  0.83546870  0.61496828  1
  O  O14  1  0.83235341  0.33217820  0.61496808  1
  O  O15  1  0.66666681  0.66666724  0.54800330  1
  O  O16  1  0.66636927  0.16802137  0.54788706  1
  O  O17  1  0.16560878  0.66636954  0.54788735  1
  O  O18  1  0.16802206  0.16560886  0.54788741  1
  O  O19  1  0.33333345  0.33333287  0.61476171  1
  O  O20  1  0.83546781  0.83235303  0.61496825  1
