# generated using pymatgen
data_HfTiS4
_symmetry_space_group_name_H-M   'P 1'
_cell_length_a   5.96377000
_cell_length_b   5.96376972
_cell_length_c   30.00000000
_cell_angle_alpha   90.00000000
_cell_angle_beta   90.00000000
_cell_angle_gamma   59.99999845
_symmetry_Int_Tables_number   1
_chemical_formula_structural   HfTiS4
_chemical_formula_sum   'Hf3 Ti3 S12'
_cell_volume   924.04608497
_cell_formula_units_Z   3
loop_
 _symmetry_equiv_pos_site_id
 _symmetry_equiv_pos_as_xyz
  1  'x, y, z'
loop_
 _atom_site_type_symbol
 _atom_site_label
 _atom_site_symmetry_multiplicity
 _atom_site_fract_x
 _atom_site_fract_y
 _atom_site_fract_z
 _atom_site_occupancy
  Hf  Hf0  1  0.00000000  0.00000000  0.60059003  1
  Hf  Hf1  1  0.33333300  0.33333300  0.60059003  1
  Hf  Hf2  1  0.66666700  0.66666700  0.60059003  1
  Ti  Ti3  1  0.66666700  0.66666700  0.40146279  1
  Ti  Ti4  1  0.33333300  0.33333300  0.40146279  1
  Ti  Ti5  1  0.00000000  0.00000000  0.40146279  1
  S  S6  1  0.33333300  0.00000000  0.45047347  1
  S  S7  1  0.00000000  0.66666700  0.35191765  1
  S  S8  1  0.66666700  0.33333300  0.35191765  1
  S  S9  1  0.33333300  0.00000000  0.35191765  1
  S  S10  1  0.66666700  0.00000000  0.65346938  1
  S  S11  1  0.33333300  0.66666700  0.65346938  1
  S  S12  1  0.00000000  0.33333300  0.65346938  1
  S  S13  1  0.66666700  0.00000000  0.54791667  1
  S  S14  1  0.33333300  0.66666700  0.54791667  1
  S  S15  1  0.00000000  0.33333300  0.54791667  1
  S  S16  1  0.66666700  0.33333300  0.45047347  1
  S  S17  1  0.00000000  0.66666700  0.45047347  1
