# generated using pymatgen
data_Zr7(Te3O4)2
_symmetry_space_group_name_H-M   'P 1'
_cell_length_a   6.65949712
_cell_length_b   6.65949712
_cell_length_c   30.00000000
_cell_angle_alpha   90.00000000
_cell_angle_beta   90.00000000
_cell_angle_gamma   59.99998892
_symmetry_Int_Tables_number   1
_chemical_formula_structural   Zr7(Te3O4)2
_chemical_formula_sum   'Zr7 Te6 O8'
_cell_volume   1152.21813971
_cell_formula_units_Z   1
loop_
 _symmetry_equiv_pos_site_id
 _symmetry_equiv_pos_as_xyz
  1  'x, y, z'
loop_
 _atom_site_type_symbol
 _atom_site_label
 _atom_site_symmetry_multiplicity
 _atom_site_fract_x
 _atom_site_fract_y
 _atom_site_fract_z
 _atom_site_occupancy
  Zr  Zr0  1  0.00000000  0.00000000  0.58879703  1
  Zr  Zr1  1  0.99987931  0.49981879  0.58813153  1
  Zr  Zr2  1  0.50030189  0.99987931  0.58813153  1
  Zr  Zr3  1  0.49981879  0.50030189  0.58813153  1
  Zr  Zr4  1  0.66666700  0.66666700  0.38018414  1
  Zr  Zr5  1  0.33333300  0.33333300  0.38340748  1
  Zr  Zr6  1  0.00000000  0.00000000  0.38384717  1
  Te  Te7  1  0.33764172  0.99621542  0.44522915  1
  Te  Te8  1  0.00316932  0.66709666  0.31944034  1
  Te  Te9  1  0.66709666  0.32973402  0.31944034  1
  Te  Te10  1  0.32973402  0.00316932  0.31944034  1
  Te  Te11  1  0.99621542  0.66614286  0.44522915  1
  Te  Te12  1  0.66614286  0.33764172  0.44522915  1
  O  O13  1  0.33333300  0.33333300  0.61946022  1
  O  O14  1  0.33413199  0.83302004  0.61973983  1
  O  O15  1  0.66666700  0.66666700  0.55680195  1
  O  O16  1  0.66754219  0.16535898  0.55711648  1
  O  O17  1  0.16709983  0.66754219  0.55711648  1
  O  O18  1  0.16535898  0.16709983  0.55711648  1
  O  O19  1  0.83284697  0.33413199  0.61973983  1
  O  O20  1  0.83302004  0.83284697  0.61973983  1
