# generated using pymatgen
data_Ni3Ge4(S3O4)2
_symmetry_space_group_name_H-M   'P 1'
_cell_length_a   5.80434700
_cell_length_b   5.80434679
_cell_length_c   30.00000000
_cell_angle_alpha   90.00000000
_cell_angle_beta   90.00000000
_cell_angle_gamma   60.00000450
_symmetry_Int_Tables_number   1
_chemical_formula_structural   Ni3Ge4(S3O4)2
_chemical_formula_sum   'Ni3 Ge4 S6 O8'
_cell_volume   875.30342151
_cell_formula_units_Z   1
loop_
 _symmetry_equiv_pos_site_id
 _symmetry_equiv_pos_as_xyz
  1  'x, y, z'
loop_
 _atom_site_type_symbol
 _atom_site_label
 _atom_site_symmetry_multiplicity
 _atom_site_fract_x
 _atom_site_fract_y
 _atom_site_fract_z
 _atom_site_occupancy
  Ni  Ni0  1  0.66666700  0.66666700  0.40989140  1
  Ni  Ni1  1  0.33333300  0.33333300  0.41043063  1
  Ni  Ni2  1  0.00000000  0.00000000  0.41047808  1
  Ge  Ge3  1  0.00000000  0.00000000  0.58528349  1
  Ge  Ge4  1  0.99991824  0.50017917  0.58520148  1
  Ge  Ge5  1  0.49990258  0.99991824  0.58520148  1
  Ge  Ge6  1  0.50017917  0.49990258  0.58520148  1
  S  S7  1  0.33525545  0.99823946  0.44889453  1
  S  S8  1  0.66676830  0.00108545  0.37141655  1
  S  S9  1  0.33214625  0.66676830  0.37141655  1
  S  S10  1  0.00108545  0.33214625  0.37141655  1
  S  S11  1  0.99823946  0.66650509  0.44889453  1
  S  S12  1  0.66650509  0.33525545  0.44889453  1
  O  O13  1  0.33333300  0.33333300  0.61812576  1
  O  O14  1  0.33346253  0.83350809  0.61815516  1
  O  O15  1  0.66666700  0.66666700  0.55216853  1
  O  O16  1  0.66675414  0.16594468  0.55228599  1
  O  O17  1  0.16730217  0.66675414  0.55228599  1
  O  O18  1  0.16594468  0.16730217  0.55228599  1
  O  O19  1  0.83302839  0.33346253  0.61815516  1
  O  O20  1  0.83350809  0.83302839  0.61815516  1
