# generated using pymatgen
data_Zr3(W2S7)2
_symmetry_space_group_name_H-M   'P 1'
_cell_length_a   6.37290644
_cell_length_b   6.37290644
_cell_length_c   30.00000000
_cell_angle_alpha   90.00000000
_cell_angle_beta   90.00000000
_cell_angle_gamma   59.99999543
_symmetry_Int_Tables_number   1
_chemical_formula_structural   Zr3(W2S7)2
_chemical_formula_sum   'Zr3 W4 S14'
_cell_volume   1055.18097395
_cell_formula_units_Z   1
loop_
 _symmetry_equiv_pos_site_id
 _symmetry_equiv_pos_as_xyz
  1  'x, y, z'
loop_
 _atom_site_type_symbol
 _atom_site_label
 _atom_site_symmetry_multiplicity
 _atom_site_fract_x
 _atom_site_fract_y
 _atom_site_fract_z
 _atom_site_occupancy
  Zr  Zr0  1  0.00000000  0.00000000  0.60188073  1
  Zr  Zr1  1  0.33333300  0.33333300  0.60232586  1
  Zr  Zr2  1  0.66666700  0.66666700  0.60322332  1
  W  W3  1  0.50057792  0.49957387  0.39231405  1
  W  W4  1  0.49957387  0.99984821  0.39231405  1
  W  W5  1  0.00000000  0.00000000  0.39228438  1
  W  W6  1  0.99984821  0.50057792  0.39231405  1
  S  S7  1  0.66706476  0.00106876  0.65084360  1
  S  S8  1  0.00106876  0.33186648  0.65084360  1
  S  S9  1  0.99868069  0.66624875  0.55428550  1
  S  S10  1  0.66664035  0.16570709  0.44442885  1
  S  S11  1  0.66624875  0.33507056  0.55428550  1
  S  S12  1  0.33507056  0.99868069  0.55428550  1
  S  S13  1  0.16625501  0.16714875  0.34005591  1
  S  S14  1  0.16714875  0.66659724  0.34005591  1
  S  S15  1  0.66659724  0.16625501  0.34005591  1
  S  S16  1  0.66666700  0.66666700  0.34006158  1
  S  S17  1  0.16570709  0.16765356  0.44442885  1
  S  S18  1  0.16765356  0.66664035  0.44442885  1
  S  S19  1  0.33186648  0.66706476  0.65084360  1
  S  S20  1  0.66666700  0.66666700  0.44462743  1
