# generated using pymatgen
data_HfZr(TeS)2
_symmetry_space_group_name_H-M   'P 1'
_cell_length_a   3.78568355
_cell_length_b   3.78568400
_cell_length_c   30.00000000
_cell_angle_alpha   90.00000000
_cell_angle_beta   90.00000000
_cell_angle_gamma   59.99999611
_symmetry_Int_Tables_number   1
_chemical_formula_structural   HfZr(TeS)2
_chemical_formula_sum   'Hf1 Zr1 Te2 S2'
_cell_volume   372.34072268
_cell_formula_units_Z   1
loop_
 _symmetry_equiv_pos_site_id
 _symmetry_equiv_pos_as_xyz
  1  'x, y, z'
loop_
 _atom_site_type_symbol
 _atom_site_label
 _atom_site_symmetry_multiplicity
 _atom_site_fract_x
 _atom_site_fract_y
 _atom_site_fract_z
 _atom_site_occupancy
  Hf  Hf0  1  0.00000000  0.00000000  0.60861792  1
  Zr  Zr1  1  0.00000000  0.00000000  0.37767217  1
  Te  Te2  1  0.33333300  0.33333300  0.31389475  1
  Te  Te3  1  0.33333300  0.33333300  0.44098870  1
  S  S4  1  0.33333300  0.33333300  0.56302578  1
  S  S5  1  0.66666700  0.66666700  0.65430168  1
