# generated using pymatgen
data_Zr4Ge7(Te4O7)2
_symmetry_space_group_name_H-M   'P 1'
_cell_length_a   7.75653804
_cell_length_b   7.75653800
_cell_length_c   30.00000000
_cell_angle_alpha   90.00000000
_cell_angle_beta   90.00000000
_cell_angle_gamma   60.00000017
_symmetry_Int_Tables_number   1
_chemical_formula_structural   Zr4Ge7(Te4O7)2
_chemical_formula_sum   'Zr4 Ge7 Te8 O14'
_cell_volume   1563.10351029
_cell_formula_units_Z   1
loop_
 _symmetry_equiv_pos_site_id
 _symmetry_equiv_pos_as_xyz
  1  'x, y, z'
loop_
 _atom_site_type_symbol
 _atom_site_label
 _atom_site_symmetry_multiplicity
 _atom_site_fract_x
 _atom_site_fract_y
 _atom_site_fract_z
 _atom_site_occupancy
  Zr  Zr0  1  0.00000000  0.00000000  0.38369270  1
  Zr  Zr1  1  0.49930221  0.99988396  0.38309850  1
  Zr  Zr2  1  0.50081383  0.49930221  0.38309850  1
  Zr  Zr3  1  0.99988396  0.50081383  0.38309850  1
  Ge  Ge4  1  0.85704707  0.71436632  0.58890363  1
  Ge  Ge5  1  0.00000000  0.00000000  0.58940308  1
  Ge  Ge6  1  0.42858661  0.85704707  0.58890363  1
  Ge  Ge7  1  0.57137955  0.14292608  0.58885871  1
  Ge  Ge8  1  0.28569437  0.57137955  0.58885871  1
  Ge  Ge9  1  0.14292608  0.28569437  0.58885871  1
  Ge  Ge10  1  0.71436632  0.42858661  0.58890363  1
  Te  Te11  1  0.16865637  0.66555431  0.44558436  1
  Te  Te12  1  0.66666700  0.66666700  0.32048556  1
  Te  Te13  1  0.66732104  0.16573370  0.32063740  1
  Te  Te14  1  0.16694626  0.66732104  0.32063740  1
  Te  Te15  1  0.16573370  0.16694626  0.32063740  1
  Te  Te16  1  0.16579032  0.16865637  0.44558436  1
  Te  Te17  1  0.66666700  0.66666700  0.44564838  1
  Te  Te18  1  0.66555431  0.16579032  0.44558436  1
  O  O19  1  0.66666700  0.66666700  0.62142495  1
  O  O20  1  0.95250827  0.23861963  0.62164486  1
  O  O21  1  0.09535257  0.52362798  0.62141315  1
  O  O22  1  0.38101945  0.09535257  0.62141315  1
  O  O23  1  0.23861963  0.80887210  0.62164486  1
  O  O24  1  0.04692947  0.76271865  0.55649488  1
  O  O25  1  0.90494639  0.47601001  0.55617808  1
  O  O26  1  0.61904359  0.90494639  0.55617808  1
  O  O27  1  0.76271865  0.19035188  0.55649488  1
  O  O28  1  0.47601001  0.61904359  0.55617808  1
  O  O29  1  0.33333300  0.33333300  0.55606963  1
  O  O30  1  0.19035188  0.04692947  0.55649488  1
  O  O31  1  0.80887210  0.95250827  0.62164486  1
  O  O32  1  0.52362798  0.38101945  0.62141315  1
