# generated using pymatgen
data_ZrTe2WS2
_symmetry_space_group_name_H-M   'P 1'
_cell_length_a   3.56074421
_cell_length_b   3.56074500
_cell_length_c   30.00000000
_cell_angle_alpha   90.00000000
_cell_angle_beta   90.00000000
_cell_angle_gamma   60.00000193
_symmetry_Int_Tables_number   1
_chemical_formula_structural   ZrTe2WS2
_chemical_formula_sum   'Zr1 Te2 W1 S2'
_cell_volume   329.40754658
_cell_formula_units_Z   1
loop_
 _symmetry_equiv_pos_site_id
 _symmetry_equiv_pos_as_xyz
  1  'x, y, z'
loop_
 _atom_site_type_symbol
 _atom_site_label
 _atom_site_symmetry_multiplicity
 _atom_site_fract_x
 _atom_site_fract_y
 _atom_site_fract_z
 _atom_site_occupancy
  Zr  Zr0  1  0.00000000  0.00000000  0.38461548  1
  Te  Te1  1  0.33333300  0.33333300  0.56319498  1
  Te  Te2  1  0.33333300  0.33333300  0.68350782  1
  W  W3  1  0.00000000  0.00000000  0.62339269  1
  S  S4  1  0.33333300  0.33333300  0.33227647  1
  S  S5  1  0.33333300  0.33333300  0.43720156  1
