# generated using pymatgen
data_Ge3W4(S3O4)2
_symmetry_space_group_name_H-M   'P 1'
_cell_length_a   5.81373600
_cell_length_b   5.81373594
_cell_length_c   30.00000000
_cell_angle_alpha   90.00000000
_cell_angle_beta   90.00000000
_cell_angle_gamma   59.99999967
_symmetry_Int_Tables_number   1
_chemical_formula_structural   Ge3W4(S3O4)2
_chemical_formula_sum   'Ge3 W4 S6 O8'
_cell_volume   878.13744010
_cell_formula_units_Z   1
loop_
 _symmetry_equiv_pos_site_id
 _symmetry_equiv_pos_as_xyz
  1  'x, y, z'
loop_
 _atom_site_type_symbol
 _atom_site_label
 _atom_site_symmetry_multiplicity
 _atom_site_fract_x
 _atom_site_fract_y
 _atom_site_fract_z
 _atom_site_occupancy
  Ge  Ge0  1  0.00000000  0.00000000  0.59750228  1
  Ge  Ge1  1  0.33333300  0.33333300  0.59750912  1
  Ge  Ge2  1  0.66666700  0.66666700  0.59777321  1
  W  W3  1  0.49990834  0.50013189  0.40589842  1
  W  W4  1  0.50013189  0.99995976  0.40589842  1
  W  W5  1  0.00000000  0.00000000  0.40587609  1
  W  W6  1  0.99995976  0.49990834  0.40589842  1
  S  S7  1  0.66668383  0.33272122  0.64499752  1
  S  S8  1  0.00059494  0.66668383  0.64499752  1
  S  S9  1  0.66665821  0.99902957  0.55029433  1
  S  S10  1  0.33431222  0.66665821  0.55029433  1
  S  S11  1  0.99902957  0.33431222  0.55029433  1
  S  S12  1  0.33272122  0.00059494  0.64499752  1
  O  O13  1  0.66665213  0.16722102  0.44649084  1
  O  O14  1  0.16672874  0.16659793  0.36522575  1
  O  O15  1  0.16659793  0.66667433  0.36522575  1
  O  O16  1  0.66667433  0.16672874  0.36522575  1
  O  O17  1  0.66666700  0.66666700  0.36525338  1
  O  O18  1  0.16722102  0.16612784  0.44649084  1
  O  O19  1  0.16612784  0.66665213  0.44649084  1
  O  O20  1  0.66666700  0.66666700  0.44658030  1
