# generated using pymatgen
data_Zr3(W2O7)2
_symmetry_space_group_name_H-M   'P 1'
_cell_length_a   5.65947155
_cell_length_b   5.65947100
_cell_length_c   30.00000000
_cell_angle_alpha   90.00000000
_cell_angle_beta   90.00000000
_cell_angle_gamma   59.99999735
_symmetry_Int_Tables_number   1
_chemical_formula_structural   Zr3(W2O7)2
_chemical_formula_sum   'Zr3 W4 O14'
_cell_volume   832.15378803
_cell_formula_units_Z   1
loop_
 _symmetry_equiv_pos_site_id
 _symmetry_equiv_pos_as_xyz
  1  'x, y, z'
loop_
 _atom_site_type_symbol
 _atom_site_label
 _atom_site_symmetry_multiplicity
 _atom_site_fract_x
 _atom_site_fract_y
 _atom_site_fract_z
 _atom_site_occupancy
  Zr  Zr0  1  0.00000000  0.00000000  0.57748835  1
  Zr  Zr1  1  0.33333300  0.33333300  0.57744793  1
  Zr  Zr2  1  0.66666700  0.66666700  0.57551699  1
  W  W3  1  0.49978501  0.50019313  0.41064970  1
  W  W4  1  0.50019313  0.00002187  0.41064970  1
  W  W5  1  0.00000000  0.00000000  0.41057489  1
  W  W6  1  0.00002187  0.49978501  0.41064970  1
  O  O7  1  0.66665920  0.33409448  0.60914190  1
  O  O8  1  0.99924633  0.66665920  0.60914190  1
  O  O9  1  0.66667249  0.00068030  0.54469191  1
  O  O10  1  0.66668155  0.16747164  0.45188912  1
  O  O11  1  0.33264722  0.66667249  0.54469191  1
  O  O12  1  0.00068030  0.33264722  0.54469191  1
  O  O13  1  0.16686413  0.16655179  0.36923576  1
  O  O14  1  0.16655179  0.66658508  0.36923576  1
  O  O15  1  0.66658508  0.16686413  0.36923576  1
  O  O16  1  0.66666700  0.66666700  0.36932246  1
  O  O17  1  0.16747164  0.16584781  0.45188912  1
  O  O18  1  0.16584781  0.66668155  0.45188912  1
  O  O19  1  0.33409448  0.99924633  0.60914190  1
  O  O20  1  0.66666700  0.66666700  0.45208214  1
