# generated using pymatgen
data_Mo4W3(S3O4)2
_symmetry_space_group_name_H-M   'P 1'
_cell_length_a   5.57810780
_cell_length_b   5.57810800
_cell_length_c   30.00000000
_cell_angle_alpha   90.00000000
_cell_angle_beta   90.00000000
_cell_angle_gamma   59.99999880
_symmetry_Int_Tables_number   1
_chemical_formula_structural   Mo4W3(S3O4)2
_chemical_formula_sum   'Mo4 W3 S6 O8'
_cell_volume   808.39887896
_cell_formula_units_Z   1
loop_
 _symmetry_equiv_pos_site_id
 _symmetry_equiv_pos_as_xyz
  1  'x, y, z'
loop_
 _atom_site_type_symbol
 _atom_site_label
 _atom_site_symmetry_multiplicity
 _atom_site_fract_x
 _atom_site_fract_y
 _atom_site_fract_z
 _atom_site_occupancy
  Mo  Mo0  1  0.00000000  0.00000000  0.59190074  1
  Mo  Mo1  1  0.99999760  0.50017197  0.59188212  1
  Mo  Mo2  1  0.49983043  0.99999760  0.59188212  1
  Mo  Mo3  1  0.50017197  0.49983043  0.59188212  1
  W  W4  1  0.66666700  0.66666700  0.39884139  1
  W  W5  1  0.33333300  0.33333300  0.39904818  1
  W  W6  1  0.00000000  0.00000000  0.39905443  1
  S  S7  1  0.33436490  0.99899606  0.45070962  1
  S  S8  1  0.00043956  0.66667950  0.34710300  1
  S  S9  1  0.66667950  0.33288094  0.34710300  1
  S  S10  1  0.33288094  0.00043956  0.34710300  1
  S  S11  1  0.99899606  0.66663904  0.45070962  1
  S  S12  1  0.66663904  0.33436490  0.45070962  1
  O  O13  1  0.16682051  0.66667688  0.63344537  1
  O  O14  1  0.16650361  0.16682051  0.63344537  1
  O  O15  1  0.66666700  0.66666700  0.55026516  1
  O  O16  1  0.66663919  0.16598886  0.55038874  1
  O  O17  1  0.16737295  0.66663919  0.55038874  1
  O  O18  1  0.16598886  0.16737295  0.55038874  1
  O  O19  1  0.66666700  0.66666700  0.63341356  1
  O  O20  1  0.66667688  0.16650361  0.63344537  1
