# generated using pymatgen
data_ZrMo(SeS)2
_symmetry_space_group_name_H-M   'P 1'
_cell_length_a   5.96792100
_cell_length_b   5.96792195
_cell_length_c   30.00000000
_cell_angle_alpha   90.00000000
_cell_angle_beta   90.00000000
_cell_angle_gamma   59.99999971
_symmetry_Int_Tables_number   1
_chemical_formula_structural   ZrMo(SeS)2
_chemical_formula_sum   'Zr3 Mo3 Se6 S6'
_cell_volume   925.33307384
_cell_formula_units_Z   3
loop_
 _symmetry_equiv_pos_site_id
 _symmetry_equiv_pos_as_xyz
  1  'x, y, z'
loop_
 _atom_site_type_symbol
 _atom_site_label
 _atom_site_symmetry_multiplicity
 _atom_site_fract_x
 _atom_site_fract_y
 _atom_site_fract_z
 _atom_site_occupancy
  Zr  Zr0  1  0.66666700  0.66666700  0.39886877  1
  Zr  Zr1  1  0.33333300  0.33333300  0.39886877  1
  Zr  Zr2  1  0.00000000  0.00000000  0.39886877  1
  Mo  Mo3  1  0.00000000  0.00000000  0.60428873  1
  Mo  Mo4  1  0.33333300  0.33333300  0.60428873  1
  Mo  Mo5  1  0.66666700  0.66666700  0.60428873  1
  Se  Se6  1  0.66666700  0.33333300  0.65839632  1
  Se  Se7  1  0.00000000  0.66666700  0.65839632  1
  Se  Se8  1  0.00000000  0.66666700  0.55050634  1
  Se  Se9  1  0.66666700  0.33333300  0.55050634  1
  Se  Se10  1  0.33333300  0.00000000  0.55050634  1
  Se  Se11  1  0.33333300  0.00000000  0.65839632  1
  S  S12  1  0.33333300  0.66666700  0.45242369  1
  S  S13  1  0.00000000  0.33333300  0.34541215  1
  S  S14  1  0.33333300  0.66666700  0.34541215  1
  S  S15  1  0.66666700  0.00000000  0.34541215  1
  S  S16  1  0.00000000  0.33333300  0.45242369  1
  S  S17  1  0.66666700  0.00000000  0.45242369  1
