# generated using pymatgen
data_Te14Pt3W4
_symmetry_space_group_name_H-M   'P 1'
_cell_length_a   7.02804791
_cell_length_b   7.02804800
_cell_length_c   30.00000000
_cell_angle_alpha   90.00000000
_cell_angle_beta   90.00000000
_cell_angle_gamma   59.99999956
_symmetry_Int_Tables_number   1
_chemical_formula_structural   Te14Pt3W4
_chemical_formula_sum   'Te14 Pt3 W4'
_cell_volume   1283.27967763
_cell_formula_units_Z   1
loop_
 _symmetry_equiv_pos_site_id
 _symmetry_equiv_pos_as_xyz
  1  'x, y, z'
loop_
 _atom_site_type_symbol
 _atom_site_label
 _atom_site_symmetry_multiplicity
 _atom_site_fract_x
 _atom_site_fract_y
 _atom_site_fract_z
 _atom_site_occupancy
  Te  Te0  1  0.66666700  0.66666700  0.44237438  1
  Te  Te1  1  0.16350963  0.66651443  0.44179745  1
  Te  Te2  1  0.16997694  0.16350963  0.44179745  1
  Te  Te3  1  0.99484229  0.33933899  0.55913085  1
  Te  Te4  1  0.33933899  0.66581872  0.55913085  1
  Te  Te5  1  0.66581872  0.99484229  0.55913085  1
  Te  Te6  1  0.32914856  0.00360184  0.65022377  1
  Te  Te7  1  0.66724959  0.32914856  0.65022377  1
  Te  Te8  1  0.00360184  0.66724959  0.65022377  1
  Te  Te9  1  0.66666700  0.66666700  0.32045130  1
  Te  Te10  1  0.66651443  0.16997694  0.44179745  1
  Te  Te11  1  0.66649774  0.16832881  0.32058545  1
  Te  Te12  1  0.16517445  0.66649774  0.32058545  1
  Te  Te13  1  0.16832881  0.16517445  0.32058545  1
  Pt  Pt14  1  0.00000000  0.00000000  0.60342341  1
  Pt  Pt15  1  0.66666700  0.66666700  0.60600411  1
  Pt  Pt16  1  0.33333300  0.33333300  0.60384923  1
  W  W17  1  0.50243855  0.99920810  0.38127691  1
  W  W18  1  0.00000000  0.00000000  0.38123327  1
  W  W19  1  0.49835335  0.50243855  0.38127691  1
  W  W20  1  0.99920810  0.49835335  0.38127691  1
