# generated using pymatgen
data_Cr4Ge3S14
_symmetry_space_group_name_H-M   'P 1'
_cell_length_a   6.02704605
_cell_length_b   6.02704600
_cell_length_c   30.00000000
_cell_angle_alpha   90.00000000
_cell_angle_beta   90.00000000
_cell_angle_gamma   60.00000026
_symmetry_Int_Tables_number   1
_chemical_formula_structural   Cr4Ge3S14
_chemical_formula_sum   'Cr4 Ge3 S14'
_cell_volume   943.75855876
_cell_formula_units_Z   1
loop_
 _symmetry_equiv_pos_site_id
 _symmetry_equiv_pos_as_xyz
  1  'x, y, z'
loop_
 _atom_site_type_symbol
 _atom_site_label
 _atom_site_symmetry_multiplicity
 _atom_site_fract_x
 _atom_site_fract_y
 _atom_site_fract_z
 _atom_site_occupancy
  Cr  Cr0  1  0.99984353  0.49955203  0.39372111  1
  Cr  Cr1  1  0.49955203  0.50060444  0.39372111  1
  Cr  Cr2  1  0.50060444  0.99984353  0.39372111  1
  Cr  Cr3  1  0.00000000  0.00000000  0.39367711  1
  Ge  Ge4  1  0.00000000  0.00000000  0.60330317  1
  Ge  Ge5  1  0.66666700  0.66666700  0.60343395  1
  Ge  Ge6  1  0.33333300  0.33333300  0.60330594  1
  S  S7  1  0.66663006  0.99889503  0.55700514  1
  S  S8  1  0.33266951  0.00061366  0.64972622  1
  S  S9  1  0.66671683  0.33266951  0.64972622  1
  S  S10  1  0.00061366  0.66671683  0.64972622  1
  S  S11  1  0.99889503  0.33447491  0.55700514  1
  S  S12  1  0.66665483  0.16769829  0.44274921  1
  S  S13  1  0.16704547  0.16635706  0.34455451  1
  S  S14  1  0.16635706  0.66659847  0.34455451  1
  S  S15  1  0.66659847  0.16704547  0.34455451  1
  S  S16  1  0.66666700  0.66666700  0.34457934  1
  S  S17  1  0.16769829  0.16564788  0.44274921  1
  S  S18  1  0.16564788  0.66665483  0.44274921  1
  S  S19  1  0.33447491  0.66663006  0.55700514  1
  S  S20  1  0.66666700  0.66666700  0.44295489  1
