# generated using pymatgen
data_Mo4Pd3S14
_symmetry_space_group_name_H-M   'P 1'
_cell_length_a   6.26139600
_cell_length_b   6.26139700
_cell_length_c   30.00000000
_cell_angle_alpha   90.00000000
_cell_angle_beta   90.00000000
_cell_angle_gamma   60.00000000
_symmetry_Int_Tables_number   1
_chemical_formula_structural   Mo4Pd3S14
_chemical_formula_sum   'Mo4 Pd3 S14'
_cell_volume   1018.57801655
_cell_formula_units_Z   1
loop_
 _symmetry_equiv_pos_site_id
 _symmetry_equiv_pos_as_xyz
  1  'x, y, z'
loop_
 _atom_site_type_symbol
 _atom_site_label
 _atom_site_symmetry_multiplicity
 _atom_site_fract_x
 _atom_site_fract_y
 _atom_site_fract_z
 _atom_site_occupancy
  Mo  Mo0  1  0.99985738  0.50085874  0.39539355  1
  Mo  Mo1  1  0.50085874  0.49928388  0.39539355  1
  Mo  Mo2  1  0.49928388  0.99985738  0.39539355  1
  Mo  Mo3  1  0.00000000  0.00000000  0.39536871  1
  Pd  Pd4  1  0.00000000  0.00000000  0.59149324  1
  Pd  Pd5  1  0.66666700  0.66666700  0.59275893  1
  Pd  Pd6  1  0.33333300  0.33333300  0.59166598  1
  S  S7  1  0.99656501  0.66628876  0.55219118  1
  S  S8  1  0.33055679  0.66695065  0.63212232  1
  S  S9  1  0.66695065  0.00249256  0.63212232  1
  S  S10  1  0.00249256  0.33055679  0.63212232  1
  S  S11  1  0.33714623  0.99656501  0.55219118  1
  S  S12  1  0.66655272  0.16499859  0.44789030  1
  S  S13  1  0.16599391  0.16739117  0.34270372  1
  S  S14  1  0.16739117  0.66661592  0.34270372  1
  S  S15  1  0.66661592  0.16599391  0.34270372  1
  S  S16  1  0.66666700  0.66666700  0.34272622  1
  S  S17  1  0.16499859  0.16844970  0.44789030  1
  S  S18  1  0.16844970  0.66655272  0.44789030  1
  S  S19  1  0.66628876  0.33714623  0.55219118  1
  S  S20  1  0.66666700  0.66666700  0.44818465  1
