# generated using pymatgen
data_Ti7Te8(Pd2O7)2
_symmetry_space_group_name_H-M   'P 1'
_cell_length_a   7.96757358
_cell_length_b   7.96757300
_cell_length_c   30.00000000
_cell_angle_alpha   90.00000000
_cell_angle_beta   90.00000000
_cell_angle_gamma   59.99999824
_symmetry_Int_Tables_number   1
_chemical_formula_structural   Ti7Te8(Pd2O7)2
_chemical_formula_sum   'Ti7 Te8 Pd4 O14'
_cell_volume   1649.31653329
_cell_formula_units_Z   1
loop_
 _symmetry_equiv_pos_site_id
 _symmetry_equiv_pos_as_xyz
  1  'x, y, z'
loop_
 _atom_site_type_symbol
 _atom_site_label
 _atom_site_symmetry_multiplicity
 _atom_site_fract_x
 _atom_site_fract_y
 _atom_site_fract_z
 _atom_site_occupancy
  Ti  Ti0  1  0.71638077  0.42751079  0.41290702  1
  Ti  Ti1  1  0.85610844  0.71638077  0.41290702  1
  Ti  Ti2  1  0.42751079  0.85610844  0.41290702  1
  Ti  Ti3  1  0.28849450  0.57018726  0.41322385  1
  Ti  Ti4  1  0.00000000  0.00000000  0.41480482  1
  Ti  Ti5  1  0.14131824  0.28849450  0.41322385  1
  Ti  Ti6  1  0.57018726  0.14131824  0.41322385  1
  Te  Te7  1  0.16568343  0.16902024  0.55007321  1
  Te  Te8  1  0.16902024  0.66529733  0.55007321  1
  Te  Te9  1  0.66529733  0.16568343  0.55007321  1
  Te  Te10  1  0.66666700  0.66666700  0.54996936  1
  Te  Te11  1  0.33247201  0.83233833  0.64348001  1
  Te  Te12  1  0.33333300  0.33333300  0.64362298  1
  Te  Te13  1  0.83233833  0.83518866  0.64348001  1
  Te  Te14  1  0.83518866  0.33247201  0.64348001  1
  Pd  Pd15  1  0.00000000  0.00000000  0.59621342  1
  Pd  Pd16  1  0.49883585  0.99991413  0.59674421  1
  Pd  Pd17  1  0.99991413  0.50125002  0.59674421  1
  Pd  Pd18  1  0.50125002  0.49883585  0.59674421  1
  O  O19  1  0.61909406  0.90449864  0.44628432  1
  O  O20  1  0.90449864  0.47640730  0.44628432  1
  O  O21  1  0.47640730  0.61909406  0.44628432  1
  O  O22  1  0.76260166  0.19087166  0.44629897  1
  O  O23  1  0.33333300  0.33333300  0.44641700  1
  O  O24  1  0.19087166  0.04652668  0.44629897  1
  O  O25  1  0.38092355  0.09548197  0.38123568  1
  O  O26  1  0.66666700  0.66666700  0.38101311  1
  O  O27  1  0.23841311  0.80874109  0.38127716  1
  O  O28  1  0.52359448  0.38092355  0.38123568  1
  O  O29  1  0.09548197  0.52359448  0.38123568  1
  O  O30  1  0.95284580  0.23841311  0.38127716  1
  O  O31  1  0.80874109  0.95284580  0.38127716  1
  O  O32  1  0.04652668  0.76260166  0.44629897  1
