# generated using pymatgen
data_HfSO
_symmetry_space_group_name_H-M   'P 1'
_cell_length_a   5.88393372
_cell_length_b   5.88393372
_cell_length_c   30.00000000
_cell_angle_alpha   90.00000000
_cell_angle_beta   90.00000000
_cell_angle_gamma   60.00000310
_symmetry_Int_Tables_number   1
_chemical_formula_structural   HfSO
_chemical_formula_sum   'Hf6 S6 O6'
_cell_volume   899.47157736
_cell_formula_units_Z   6
loop_
 _symmetry_equiv_pos_site_id
 _symmetry_equiv_pos_as_xyz
  1  'x, y, z'
loop_
 _atom_site_type_symbol
 _atom_site_label
 _atom_site_symmetry_multiplicity
 _atom_site_fract_x
 _atom_site_fract_y
 _atom_site_fract_z
 _atom_site_occupancy
  Hf  Hf0  1  0.00000000  0.00000000  0.57952328  1
  Hf  Hf1  1  0.33333300  0.33333300  0.57952328  1
  Hf  Hf2  1  0.66666700  0.66666700  0.57952328  1
  Hf  Hf3  1  0.66666700  0.66666700  0.40061942  1
  Hf  Hf4  1  0.33333300  0.33333300  0.40061942  1
  Hf  Hf5  1  0.00000000  0.00000000  0.40061942  1
  S  S6  1  0.33333300  0.00000000  0.45377463  1
  S  S7  1  0.00000000  0.66666700  0.34729133  1
  S  S8  1  0.66666700  0.33333300  0.34729133  1
  S  S9  1  0.33333300  0.00000000  0.34729133  1
  S  S10  1  0.00000000  0.66666700  0.45377463  1
  S  S11  1  0.66666700  0.33333300  0.45377463  1
  O  O12  1  0.66666700  0.33333300  0.60924584  1
  O  O13  1  0.33333300  0.00000000  0.60924584  1
  O  O14  1  0.66666700  0.00000000  0.54999250  1
  O  O15  1  0.33333300  0.66666700  0.54999250  1
  O  O16  1  0.00000000  0.33333300  0.54999250  1
  O  O17  1  0.00000000  0.66666700  0.60924584  1
