# generated using pymatgen
data_Ni4Pt3(S3O4)2
_symmetry_space_group_name_H-M   'P 1'
_cell_length_a   5.92980408
_cell_length_b   5.92980408
_cell_length_c   30.00000000
_cell_angle_alpha   90.00000000
_cell_angle_beta   90.00000000
_cell_angle_gamma   59.99999907
_symmetry_Int_Tables_number   1
_chemical_formula_structural   Ni4Pt3(S3O4)2
_chemical_formula_sum   'Ni4 Pt3 S6 O8'
_cell_volume   913.55052598
_cell_formula_units_Z   1
loop_
 _symmetry_equiv_pos_site_id
 _symmetry_equiv_pos_as_xyz
  1  'x, y, z'
loop_
 _atom_site_type_symbol
 _atom_site_label
 _atom_site_symmetry_multiplicity
 _atom_site_fract_x
 _atom_site_fract_y
 _atom_site_fract_z
 _atom_site_occupancy
  Ni  Ni0  1  0.00000000  0.00000000  0.57847554  1
  Ni  Ni1  1  0.99972661  0.50009547  0.57853316  1
  Ni  Ni2  1  0.50017792  0.99972661  0.57853316  1
  Ni  Ni3  1  0.50009547  0.50017792  0.57853316  1
  Pt  Pt4  1  0.66666700  0.66666700  0.41571379  1
  Pt  Pt5  1  0.33333300  0.33333300  0.41672018  1
  Pt  Pt6  1  0.00000000  0.00000000  0.41671808  1
  S  S7  1  0.33642028  0.66673870  0.45968585  1
  S  S8  1  0.00256484  0.66662029  0.37238629  1
  S  S9  1  0.66662029  0.33081487  0.37238629  1
  S  S10  1  0.33081487  0.00256484  0.37238629  1
  S  S11  1  0.99684102  0.33642028  0.45968585  1
  S  S12  1  0.66673870  0.99684102  0.45968585  1
  O  O13  1  0.33333300  0.33333300  0.60794396  1
  O  O14  1  0.33281649  0.83459989  0.60805520  1
  O  O15  1  0.66666700  0.66666700  0.54879047  1
  O  O16  1  0.66660736  0.16865451  0.54880583  1
  O  O17  1  0.16473913  0.66660736  0.54880583  1
  O  O18  1  0.16865451  0.16473913  0.54880583  1
  O  O19  1  0.83258262  0.33281649  0.60805520  1
  O  O20  1  0.83459989  0.83258262  0.60805520  1
