# generated using pymatgen
data_Cr4Sn3(Se4S3)2
_symmetry_space_group_name_H-M   'P 1'
_cell_length_a   6.41095758
_cell_length_b   6.41095800
_cell_length_c   30.00000000
_cell_angle_alpha   90.00000000
_cell_angle_beta   90.00000000
_cell_angle_gamma   59.99999781
_symmetry_Int_Tables_number   1
_chemical_formula_structural   Cr4Sn3(Se4S3)2
_chemical_formula_sum   'Cr4 Sn3 Se8 S6'
_cell_volume   1067.81916557
_cell_formula_units_Z   1
loop_
 _symmetry_equiv_pos_site_id
 _symmetry_equiv_pos_as_xyz
  1  'x, y, z'
loop_
 _atom_site_type_symbol
 _atom_site_label
 _atom_site_symmetry_multiplicity
 _atom_site_fract_x
 _atom_site_fract_y
 _atom_site_fract_z
 _atom_site_occupancy
  Cr  Cr0  1  0.99974587  0.49927553  0.39037749  1
  Cr  Cr1  1  0.49927553  0.50097860  0.39037749  1
  Cr  Cr2  1  0.50097860  0.99974587  0.39037749  1
  Cr  Cr3  1  0.00000000  0.00000000  0.39030886  1
  Sn  Sn4  1  0.00000000  0.00000000  0.60584745  1
  Sn  Sn5  1  0.66666700  0.66666700  0.60647793  1
  Sn  Sn6  1  0.33333300  0.33333300  0.60588267  1
  Se  Se7  1  0.66664494  0.16825761  0.44249051  1
  Se  Se8  1  0.16735219  0.16608206  0.33809036  1
  Se  Se9  1  0.16608206  0.66656675  0.33809036  1
  Se  Se10  1  0.66656675  0.16735219  0.33809036  1
  Se  Se11  1  0.66666700  0.66666700  0.33811217  1
  Se  Se12  1  0.16825761  0.16509844  0.44249051  1
  Se  Se13  1  0.16509844  0.66664494  0.44249051  1
  Se  Se14  1  0.66666700  0.66666700  0.44279415  1
  S  S15  1  0.66660452  0.99826521  0.55691520  1
  S  S16  1  0.33199098  0.00122199  0.65524104  1
  S  S17  1  0.66678704  0.33199098  0.65524104  1
  S  S18  1  0.00122199  0.66678704  0.65524104  1
  S  S19  1  0.99826521  0.33513027  0.55691520  1
  S  S20  1  0.33513027  0.66660452  0.55691520  1
